/*--------------------------------*- C++ -*----------------------------------*\
| =========                 |                                                 |
| \\      /  F ield         | OpenFOAM: The Open Source CFD Toolbox           |
|  \\    /   O peration     | Version:  v2006                                 |
|   \\  /    A nd           | Website:  www.openfoam.com                      |
|    \\/     M anipulation  |                                                 |
\*---------------------------------------------------------------------------*/
FoamFile
{
    version     2.0;
    format      ascii;
    class       scalarListList;
    location    "constant/airOutside";
    object      F;
}
// * * * * * * * * * * * * * * * * * * * * * * * * * * * * * * * * * * * * * //


208
(

35
(
4.0748535e-05
6.4981124e-05
4.8787378e-05
2.6539053e-05
3.2786132e-05
2.7774225e-05
1.6818605e-05
1.107608e-05
7.3685632e-06
1.4187107e-05
8.1514564e-06
1.3629813e-05
0.00022798651
0.00010793751
6.1973337e-05
3.9615719e-05
0.00035477571
0.00023579606
0.00013845384
0.00022999561
0.00023402865
0.00024313959
9.6434845e-05
7.9486568e-05
5.1951183e-05
5.1985064e-05
2.1559934e-05
0.00048086121
0.00049760519
0.00018485927
0.00014060855
7.994027e-05
6.5434818e-05
5.2711075e-05
6.0239883e-05
)


35
(
5.7650879e-05
9.5656177e-05
7.4437169e-05
2.0030341e-05
2.3734779e-05
1.9582213e-05
1.1643172e-05
7.5747646e-06
4.924829e-06
9.3010477e-06
5.2956741e-06
8.7738073e-06
0.0003240149
0.00016492328
4.4931958e-05
2.6644336e-05
0.00048980386
0.00034019442
0.00020585352
0.00034530682
0.000179777
0.00017827823
6.8586898e-05
5.4829923e-05
3.5064468e-05
3.4396526e-05
1.3987976e-05
0.0006824795
0.00074189742
0.00014011668
9.9103076e-05
5.4557971e-05
4.351597e-05
3.4478957e-05
3.8811984e-05
)


36
(
4.8001331e-34
6.7349981e-05
0.00011963338
0.00010014607
6.542039e-06
7.6306288e-06
6.235222e-06
3.6831332e-06
2.3858136e-06
1.5390271e-06
2.8882245e-06
1.6395786e-06
2.7085195e-06
0.00038316464
0.00022365716
1.445797e-05
8.3453844e-06
0.00056087673
0.00041590299
0.00026379872
0.0004557183
5.9175673e-05
5.7671913e-05
2.1923283e-05
1.7329455e-05
1.1000225e-05
1.0716075e-05
4.3296199e-06
0.00082335541
0.00097672398
4.5953595e-05
3.1593432e-05
1.7189394e-05
1.3585711e-05
1.0703636e-05
1.1989229e-05
)


11
(
7.9212787e-05
0.00015132728
0.00013742188
0.00045598896
0.00030897235
0.00064116757
0.00051102206
0.00034209599
0.00060855853
0.00099282377
0.0012975838
)


13
(
1.0653276e-34
1.3822071e-35
6.6195601e-05
0.0001361958
0.00013722553
0.00038787907
0.00031332255
0.00053493249
0.0004538952
0.00031927651
0.00059739786
0.0008822031
0.0012872957
)


37
(
4.0236824e-35
5.1616655e-05
0.00011310339
0.00012582643
1.6741304e-05
1.1142431e-05
1.2068768e-05
6.1313849e-06
4.304905e-06
3.9159093e-06
0.00030719149
0.00029148685
5.7485947e-05
4.1006538e-05
3.296656e-05
1.3037266e-05
1.6723669e-05
1.2511942e-05
1.1880073e-05
0.00041721584
0.00037315156
0.00027411452
0.00053838049
8.7121262e-05
0.00011572508
6.6790948e-05
4.8284824e-05
2.2686415e-05
0.00072695335
0.001175681
0.00016019561
5.1829158e-05
3.4025865e-05
3.1836346e-05
2.0618763e-05
4.2377913e-34
8.5018499e-36
)


40
(
9.6178603e-35
3.4575095e-37
3.8164841e-05
8.6287123e-05
0.00010150195
2.6950369e-05
1.8411814e-05
2.0391857e-05
1.0493936e-05
7.5149927e-06
6.9498195e-06
0.00022922606
0.00023749118
9.1577313e-05
6.7324141e-05
5.5336207e-05
2.2559114e-05
2.9274031e-05
2.2091693e-05
2.1122159e-05
0.00031055905
0.00028455805
0.00021325764
0.00043199948
0.00013774377
0.00019017965
0.00011186874
8.2880486e-05
3.8997943e-05
0.00055808393
0.00095574854
0.00025597983
8.7867291e-05
5.9218385e-05
5.6481223e-05
3.6172046e-05
1.78516e-34
1.6174985e-35
6.0236336e-36
6.1433001e-36
)


35
(
2.67548e-35
2.346753e-05
5.4016436e-05
6.6171508e-05
3.2789004e-05
2.3552864e-05
2.720709e-05
1.4343222e-05
1.065266e-05
1.0146841e-05
0.00014204519
0.00015648429
0.00010920588
8.5023274e-05
7.2902469e-05
3.1461947e-05
4.1688228e-05
3.195233e-05
3.0928175e-05
0.00019402438
0.00017956463
0.00013567157
0.00028282524
0.0001618294
0.00024035884
0.0001466702
0.0001137777
5.371733e-05
0.00035697565
0.00063692798
0.00030656389
0.00011779464
8.3393818e-05
8.2344917e-05
5.1687234e-05
)


40
(
4.6668579e-37
1.0122697e-37
3.2685476e-37
5.8811081e-05
8.875967e-05
6.2598308e-05
4.5357966e-05
5.4003092e-05
4.4562039e-05
2.648001e-05
1.7212961e-05
1.1143329e-05
2.0915183e-05
1.1869223e-05
1.9582932e-05
0.00032357371
0.00013650888
0.00010195726
6.028562e-05
0.00050165859
0.00032129531
0.000183829
0.0002937026
0.0004023479
0.0003995625
0.00015501265
0.00012414486
7.9045398e-05
7.7372009e-05
3.1277407e-05
0.0006465448
0.00062787429
0.00030950505
0.00022256984
0.00012260782
9.7582414e-05
7.707139e-05
8.6303002e-05
2.5144442e-35
5.1266056e-36
)


37
(
2.7599383e-34
0.0001046245
0.00015807526
0.0001101725
5.1409063e-05
5.6566319e-05
4.4387851e-05
2.5494534e-05
1.6199933e-05
1.0042476e-05
1.8166094e-05
1.0132468e-05
1.6424832e-05
0.00057024684
0.00023776873
0.00010694411
5.4935885e-05
0.0008503354
0.00055709974
0.00032323701
0.00050551718
0.00046802359
0.00042378353
0.00015615674
0.00011836202
7.2276276e-05
6.8273762e-05
2.6603495e-05
0.0010867946
0.0010617071
0.00034599623
0.00021943319
0.00011408606
8.6678319e-05
6.6435925e-05
7.2331672e-05
4.9704354e-36
)


37
(
4.7317552e-34
4.8719801e-35
0.00011381168
0.0001967404
0.00015744809
1.2040719e-05
1.3108623e-05
1.0234506e-05
5.8592192e-06
3.7157598e-06
2.2980924e-06
4.1538152e-06
2.3161569e-06
3.754735e-06
0.00063817771
0.00034620433
2.4839229e-05
1.2589178e-05
0.00091080872
0.00067108875
0.00042344764
0.00070438067
0.00011096931
9.9521514e-05
3.6237628e-05
2.7260968e-05
1.6613174e-05
1.5642167e-05
6.0872444e-06
0.0012925581
0.0014788026
8.2680484e-05
5.1046538e-05
2.6339496e-05
1.9918227e-05
1.5234228e-05
1.6572252e-05
)


38
(
2.0980422e-34
3.8121301e-05
9.03921e-05
0.00011494193
4.7025953e-05
3.1852355e-05
3.4881083e-05
1.7808203e-05
1.255767e-05
1.1425147e-05
0.00023101491
0.00027066861
0.00015978173
0.00011643462
9.4816235e-05
3.7948276e-05
4.8720922e-05
3.6469914e-05
3.4621532e-05
0.00030568043
0.00029302158
0.00022827257
0.00047644443
0.0002396555
0.00032601278
0.00019107081
0.00013954691
6.5830655e-05
0.00056956842
0.0010582195
0.00044006578
0.00014856412
9.8703949e-05
9.2561341e-05
5.9910971e-05
2.9507766e-35
1.2216903e-35
1.9403148e-36
)


37
(
7.0565495e-37
6.6316123e-05
9.4424263e-05
6.2919213e-05
7.2782063e-05
8.6443554e-05
7.0876696e-05
4.1863081e-05
2.7080082e-05
1.7299624e-05
3.1983004e-05
1.800878e-05
2.9443716e-05
0.00035976571
0.00013577032
0.00016272382
9.3800684e-05
0.0005634198
0.000344308
0.00019094882
0.00029592577
0.0006387745
0.00063025956
0.00024511072
0.00019499312
0.00012259818
0.00011879617
4.7291723e-05
0.00069141771
0.00062966459
0.0004833594
0.00034843274
0.00019017811
0.00014955526
0.00011688708
0.00012921301
4.0395983e-34
)


38
(
7.6086087e-34
0.00016953956
0.00025806052
0.0001783047
5.1807031e-05
5.3121719e-05
3.9894715e-05
2.2266785e-05
1.3882081e-05
8.3008582e-06
1.4564012e-05
8.009231e-06
1.2796361e-05
0.00091473345
0.00038032232
0.0001005226
4.5813851e-05
0.0013010326
0.00087935767
0.0005206848
0.00079594157
0.0004814494
0.00040017298
0.00014138692
0.00010238143
6.034717e-05
5.5410203e-05
2.0955535e-05
0.0016539802
0.001637641
0.00034068182
0.00019464792
9.6501176e-05
7.0631946e-05
5.2853545e-05
5.6257523e-05
3.4716386e-34
1.3176764e-35
)


18
(
3.4609678e-34
1.7025824e-34
8.0717789e-35
1.4615154e-36
2.3458541e-35
9.9728949e-36
5.8891663e-36
0.00013353639
0.00028334754
0.00029066373
0.00077693339
0.00065278231
0.0010065504
0.00089723182
0.00065855179
0.0012007993
0.0016576002
0.0024943284
)


37
(
0.00010897772
0.00025632044
0.00030926759
3.4639337e-05
2.0581469e-05
2.012024e-05
9.6371628e-06
6.1636498e-06
5.1688738e-06
0.00064906417
0.00070666377
0.00012369934
7.7156244e-05
5.6354359e-05
1.9430727e-05
2.3531531e-05
1.6885954e-05
1.5498868e-05
0.00081354718
0.00079143714
0.0006266853
0.0012244287
0.00019065058
0.0002112846
0.00011377753
7.3726448e-05
3.4744039e-05
0.0014541906
0.0025713455
0.00032372429
8.2820481e-05
4.8766224e-05
4.1734124e-05
2.8506796e-05
6.6373097e-35
7.4338062e-34
2.8653652e-35
)


17
(
8.3673506e-34
4.0268578e-35
6.3000542e-35
1.8888216e-35
0.00019223823
0.00033704578
0.00026881789
0.0010674372
0.0005827626
0.0014443937
0.0011037648
0.0007158527
0.0011597522
0.0020367932
0.0023693441
3.7770613e-34
2.8922712e-34
)


38
(
7.2929653e-35
7.3306469e-05
0.000177663
0.00022935867
5.9699085e-05
3.7246231e-05
3.7900496e-05
1.8543586e-05
1.222934e-05
1.0503223e-05
0.00044242234
0.00053333904
0.00020890476
0.00013834833
0.00010503077
3.8050951e-05
4.6909494e-05
3.4083876e-05
3.1586082e-05
0.00056144685
0.00055611834
0.00044637988
0.00091432623
0.0003184341
0.00038153837
0.00021184009
0.00014285925
6.7373872e-05
0.0010437067
0.0019738163
0.000557128
0.00015762385
9.6509798e-05
8.4853129e-05
5.7060677e-05
1.8812137e-34
1.1418922e-33
1.9600507e-35
)


35
(
4.3470983e-05
0.00010978784
0.00015546963
9.0296607e-05
5.9399548e-05
6.2920132e-05
3.1432222e-05
2.131284e-05
1.8657346e-05
0.00026600776
0.00036750288
0.00030801169
0.00021746723
0.00017209275
6.549801e-05
8.1927479e-05
6.0150626e-05
5.6168866e-05
0.00033846032
0.00034523934
0.00028450576
0.00061392058
0.00046026548
0.00059677523
0.00034459627
0.00024199557
0.0001147261
0.00065772414
0.0013614256
0.00081896673
0.00026100456
0.00016680211
0.00015022243
9.9687246e-05
1.7238389e-33
)


35
(
1.9165899e-34
3.2984417e-05
8.4653193e-05
0.0001247209
0.00010516665
7.1342204e-05
7.7268855e-05
3.9038074e-05
2.6843055e-05
2.3694457e-05
0.0002028687
0.00029660032
0.00035313986
0.0002586318
0.00020962095
8.1963875e-05
0.00010319863
7.6129526e-05
7.1320579e-05
0.0002581867
0.00026643115
0.00022203864
0.00048916311
0.0005205607
0.00070491134
0.00041713603
0.00029955453
0.00014266768
0.00051017714
0.00109663
0.00093111504
0.00031855234
0.00020865941
0.00019012501
0.00012539581
)


36
(
0.00022806942
0.00029272872
0.00017202905
0.00015301147
0.00015145954
0.00011065242
6.0610531e-05
3.7286473e-05
2.164762e-05
3.6908166e-05
2.0021131e-05
3.1509105e-05
0.0011718705
0.00035517653
0.00028513072
0.00012011158
0.0016684174
0.0010038881
0.00054836333
0.00076646854
0.001399722
0.0011072967
0.00038833197
0.00027461603
0.0001572202
0.00014148342
5.2073378e-05
0.0018501336
0.0015552338
0.00093358447
0.00052124437
0.00025183572
0.00017977628
0.00013199639
0.00013755275
3.0311186e-34
)


13
(
2.3529688e-33
1.7077018e-34
0.00026704886
0.0005843567
0.00059922737
0.0015305837
0.0013051801
0.0018183304
0.0017147085
0.0013270736
0.0022943005
0.0029436289
0.0045021001
)


37
(
8.5751445e-05
0.00010611748
6.2344352e-05
0.00018683488
0.00021907034
0.0001752805
0.00010135997
6.448364e-05
3.9432096e-05
6.9521284e-05
3.8232039e-05
6.0850362e-05
0.00044736497
0.00013095398
0.0004076937
0.00021526666
0.00070070242
0.00038851678
0.00020229551
0.00029135333
0.0015749212
0.0015083585
0.00059231862
0.00046096337
0.00027788988
0.00026118155
9.9297089e-05
0.00076546174
0.000610906
0.001114943
0.00081148567
0.0004302892
0.00032635714
0.00024730503
0.00026340656
4.3318745e-35
4.8548184e-34
)


42
(
0.00018966312
0.00022153294
0.0001225931
0.00025585383
0.00026078153
0.00019114634
0.00010451236
6.4090083e-05
3.6704852e-05
6.1494223e-05
3.3066142e-05
5.150117e-05
0.00095890481
0.00025187124
0.00048637392
0.00020380336
0.0014157749
0.00078316036
0.00040596437
0.0005557422
0.0022334946
0.0018189232
0.00065702814
0.00046761227
0.00026432475
0.00023616359
8.5534358e-05
0.0014694797
0.0011377306
0.001452734
0.00086718157
0.00042030394
0.0002980357
0.00021686773
0.00022307623
4.3213091e-35
2.1918283e-35
1.1738557e-34
1.9555481e-35
9.6611954e-37
1.0408245e-35
7.1503526e-35
)


37
(
0.00081513598
0.00097022618
0.0004992561
0.00020470948
0.00016261054
0.00010477345
5.333149e-05
3.1279034e-05
1.6668165e-05
2.6534399e-05
1.396557e-05
2.1325393e-05
0.0038212065
0.00096078227
0.00030634674
9.4324183e-05
0.0043571844
0.0028287959
0.0016233238
0.0019698046
0.0019400533
0.001163667
0.00037013903
0.00023420855
0.00012301187
0.00010422291
3.6008365e-05
0.0044253261
0.0036889696
0.0010591563
0.00046579025
0.00020183077
0.00013300893
9.2930265e-05
9.2530353e-05
2.7012128e-35
3.639004e-35
)


41
(
2.7062728e-34
7.841094e-34
7.9257404e-34
0.00051517429
0.00080024745
0.00053048073
3.623321e-05
3.146543e-05
2.1368304e-05
1.1203167e-05
6.7001859e-06
3.7041287e-06
6.0808651e-06
3.2438018e-06
5.0226533e-06
0.0026672454
0.0010801467
5.9556403e-05
2.0818496e-05
0.0032180196
0.0024015421
0.0015273707
0.0021371966
0.00034808141
0.00023453279
7.6271293e-05
5.0164139e-05
2.7346793e-05
2.3695638e-05
8.410569e-06
0.0039801811
0.0040882433
0.00021451594
9.953578e-05
4.4726185e-05
3.0332514e-05
2.1603351e-05
2.1929869e-05
3.0571498e-35
1.6351244e-34
6.6373097e-35
)


13
(
1.9114378e-33
0.00062150363
0.0012778506
0.0011042262
0.003358299
0.0022392826
0.0035386059
0.0033433022
0.0026192217
0.003868054
0.0051225568
0.0069681223
3.5468703e-34
)


37
(
4.695582e-34
0.00027241048
0.00074600528
0.00108366
9.34336e-05
4.6571328e-05
3.8952872e-05
1.7167275e-05
9.6783892e-06
7.3049161e-06
0.0016212587
0.0023651786
0.00035537055
0.000177399
0.00011283193
3.2146886e-05
3.6010748e-05
2.4488405e-05
2.1540117e-05
0.0017141558
0.0019707334
0.001847878
0.0035138566
0.00055046644
0.00045340665
0.00022381409
0.00012494809
5.9520825e-05
0.0031879614
0.0067031107
0.00078898578
0.0001478724
7.6013928e-05
5.8185749e-05
4.248521e-05
1.7989652e-34
3.2435774e-34
)


36
(
2.0050717e-34
3.4851739e-35
0.00010581845
0.00028393029
0.00043016393
0.00014200181
8.1925274e-05
7.732465e-05
3.6228783e-05
2.227773e-05
1.7980918e-05
0.00064498458
0.00099159791
0.0005078547
0.00030636985
0.00021763547
7.1379986e-05
8.4168106e-05
5.9258591e-05
5.3526218e-05
0.00075371874
0.00082869963
0.00073516651
0.0015467171
0.00077391848
0.00081418673
0.00043447523
0.000271058
0.00012874782
0.0014746065
0.0032477017
0.0012550557
0.00030717394
0.00017483285
0.00014397463
0.00010072888
)


36
(
4.5846772e-05
0.00013060023
0.00023344154
0.00029058551
0.00018555395
0.00018590066
8.9133549e-05
5.5679457e-05
4.4732214e-05
0.0002854464
0.00055169273
0.00097534754
0.00067020125
0.0005101377
0.00017702521
0.00020889541
0.00014702236
0.00013238932
0.00033548582
0.00038492378
0.00035562175
0.0008168846
0.001408156
0.0017175097
0.00099209446
0.0006505834
0.00031497419
0.00070156839
0.0018007201
0.0023140746
0.0007090199
0.00042598362
0.00035266494
0.00024686014
1.1089339e-34
1.6105919e-34
)


38
(
2.0523088e-35
6.592344e-37
0.00014029336
0.00014792424
7.6168962e-05
0.00051117297
0.00055952246
0.00041505882
0.00022666777
0.00013818581
7.6713895e-05
0.0001233077
6.494833e-05
9.8712257e-05
0.0006913416
0.00015445659
0.0010185899
0.00042615127
0.0010288533
0.0005290061
0.00026212196
0.00034586372
0.0040284007
0.0034710338
0.0013493715
0.00098153613
0.00053920375
0.00047485075
0.00016574459
0.00099027888
0.00070712874
0.002462722
0.0017097196
0.00083949359
0.00058832888
0.00041987804
0.00041932169
2.0310357e-34
)


35
(
0.00065304674
0.00061201459
0.00027816803
0.00063884855
0.00051841278
0.00032955514
0.00016535299
9.5719532e-05
4.9210681e-05
7.5342053e-05
3.8911504e-05
5.8164237e-05
0.0029485116
0.00053424142
0.00096113689
0.00027978091
0.0036566281
0.0019562122
0.00098489419
0.0011592021
0.0055834842
0.0034198855
0.0011262144
0.00070804877
0.00035933788
0.0002980269
9.9337094e-05
0.003212904
0.0022388815
0.0028656788
0.0013656373
0.00058513878
0.0003766197
0.00025728604
0.00024912532
)


11
(
0.0010499018
0.0034463419
0.0056916497
0.0058008153
0.0098249752
0.0043348468
0.006009788
0.0075455776
0.010860671
0.0073255516
0.015890609
)


34
(
9.4088067e-05
0.00028399525
0.00055516394
0.00040779208
0.00022677133
0.00020157699
9.0742851e-05
5.1842783e-05
3.8953917e-05
0.00058471056
0.0012763777
0.0014371888
0.00083610034
0.00056997286
0.00017110728
0.0001917492
0.00013031968
0.00011430833
0.00063931618
0.0007824076
0.00077621475
0.0017511869
0.0021057197
0.0020706339
0.0011047135
0.00064662708
0.00031310194
0.0013444345
0.0036707957
0.0031221445
0.00073860085
0.00039859142
0.00030637259
0.0002238648
)


34
(
2.3783113e-05
6.6839396e-05
0.00011859543
0.00030337217
0.00021261693
0.00022768059
0.00011273702
7.3072334e-05
5.983206e-05
0.000148417
0.00028294705
0.00097339435
0.00074657679
0.00060988273
0.00022847067
0.00027404357
0.00019506681
0.00017690254
0.00017883503
0.00020137431
0.00018263028
0.00042544027
0.0013573358
0.0018836833
0.0011660619
0.00081450227
0.00039949968
0.00037507066
0.00095763669
0.0022899809
0.00085381301
0.00054851646
0.00046720982
0.00032237351
)


43
(
4.4986562e-05
4.9608623e-05
2.6547032e-05
0.00042082333
0.00054225073
0.00044724167
0.00026155246
0.00016673475
9.9578942e-05
0.00016807863
9.0288492e-05
0.00013946833
0.00022727527
5.4631995e-05
0.0009831519
0.00054148455
0.00035458074
0.00018213933
9.0355197e-05
0.00012324451
0.0031856261
0.0032653273
0.0014114203
0.0011466619
0.00067608783
0.00063050297
0.00023025458
0.00035347267
0.00025601496
0.0021070086
0.0018533626
0.0010128079
0.00076656642
0.00057052325
0.00058689459
5.9956492e-34
6.9672581e-35
1.3777627e-35
3.7109725e-36
7.725878e-37
2.1757458e-36
1.0117223e-35
1.1117396e-35
)


11
(
0.0045468558
0.0052925119
0.0024773312
0.016180019
0.0040917475
0.010622819
0.0092136712
0.0070039438
0.0067937456
0.010289358
0.010578497
)


36
(
5.3792085e-35
1.3806951e-34
0.00026694629
0.00093917576
0.0024016302
0.00068374728
0.00028609869
0.00020249702
8.2094075e-05
4.0838361e-05
2.7791838e-05
0.0016393946
0.0048559842
0.0027064469
0.0010690387
0.00060036173
0.00014239653
0.00014726905
9.5117861e-05
8.0363743e-05
0.0014811858
0.0021045569
0.0025526592
0.0052720018
0.0038354333
0.0023765567
0.0011309281
0.00055431218
0.00027126233
0.0030810467
0.0094106551
0.0041877791
0.00067072929
0.00031234759
0.00021637247
0.00016798546
)


41
(
0.020487563
0.0032867499
0.00073763483
0.0046842371
0.0014020333
0.00056826729
0.00023200959
0.00011718219
4.7969648e-05
6.1806138e-05
2.9729047e-05
4.14303e-05
0.019166624
0.0011168892
0.0024966922
0.0002848404
0.0090551624
0.0052225668
0.0027931599
0.002173693
0.04064623
0.0060878774
0.0017616484
0.00086611027
0.00034958555
0.00025560303
7.3841453e-05
0.0055697552
0.0036216546
0.0044081849
0.0016652708
0.00058020848
0.00031851464
0.00019639996
0.0001727076
1.2061636e-34
1.1415435e-34
1.9199284e-33
1.8510905e-35
2.1849523e-34
7.1636395e-35
)


37
(
2.0775976e-34
0.00052868943
0.00034601491
0.00012771707
0.0025546891
0.0020678379
0.0012075834
0.00056980103
0.00031324387
0.00014265965
0.0001946036
9.5497482e-05
0.00013513077
0.0020701187
0.00023282439
0.003584716
0.00082264066
0.0022656744
0.0010616918
0.00049009427
0.00051058569
0.016916288
0.0099142508
0.0036128488
0.0022115393
0.0010009472
0.00078266916
0.00023714557
0.001614752
0.00096641127
0.0064883856
0.0038141825
0.00158293
0.00095757106
0.00061775941
0.00055881965
1.4600386e-33
)


12
(
6.22712e-35
0.038035659
0.056234029
0.071896185
0.033003156
0.021031164
0.008880132
0.011978968
0.023792508
0.012688915
0.0084359078
0.012818654
)


41
(
2.6544132e-35
9.830198e-35
5.6386312e-35
0.00091070818
0.0043548605
0.024050604
0.0094316117
0.0010807158
0.00038947697
0.00012454744
4.6366574e-05
2.5818299e-05
0.0048720055
0.020541202
0.04521207
0.0032525976
0.0012476455
0.00017946484
0.00015638824
9.1492373e-05
7.1953758e-05
0.0025819927
0.0046800654
0.0093668475
0.012101797
0.015376585
0.0043169883
0.0019217562
0.00069782113
0.00036558006
0.0045443515
0.014405839
0.006893833
0.00086647592
0.0003337587
0.00019260118
0.00016717676
2.9115577e-34
1.071196e-34
6.2012769e-34
1.1196763e-34
)


34
(
7.5261237e-05
0.00028309513
0.0010204919
0.0018704051
0.00088257461
0.0006384206
0.00025637224
0.00012218015
7.8752328e-05
0.00047676723
0.0020554526
0.0064083444
0.003087274
0.0018373289
0.00043219606
0.0004301833
0.00027112648
0.00022420799
0.00044184933
0.00065447273
0.00083314431
0.0019763719
0.0080402614
0.0061212344
0.0032467102
0.0016135779
0.00082021469
0.00099856858
0.0037996259
0.0086711506
0.0018655003
0.00089417371
0.00059647063
0.00047620083
)


36
(
1.2417706e-05
3.8794318e-05
8.6234147e-05
0.00071747314
0.00052138612
0.00054728498
0.00026344317
0.00015801418
0.00011797245
7.8383141e-05
0.0002022383
0.0021751571
0.0017500034
0.0014395102
0.00050900493
0.00057348553
0.00039078141
0.00034106379
8.6942221e-05
0.00010871189
0.00011011726
0.00026695024
0.0028285738
0.0039695905
0.0025997831
0.001751633
0.00089458045
0.00019173653
0.00058780932
0.0043957652
0.0017962994
0.0011304718
0.00088974186
0.0006474771
1.4805613e-33
1.5693206e-35
)


27
(
4.5607604e-37
1.9320318e-36
2.4031308e-35
0.0004943168
0.00083755249
0.00081796979
0.00053604424
0.00036726665
0.00024019962
0.00041698671
0.00022511061
0.00034444174
0.0014765344
0.0012518066
0.003282851
0.0042232348
0.0022878469
0.00227766
0.0014563937
0.0014858769
0.00055872482
0.0021878265
0.0030015634
0.0019654072
0.0016815025
0.0013177973
0.0013695606
)


26
(
6.6634396e-34
0.0020012813
0.0030390526
0.0023237113
0.0012307085
0.00071095474
0.00032863513
0.00043779341
0.00021262046
0.0002958188
0.0047517844
0.0018365267
0.010676233
0.010653075
0.0054963953
0.0043716529
0.002062931
0.001702398
0.00051553755
0.0051263071
0.0057379213
0.0029296407
0.001956995
0.0012997984
0.0011744464
2.0611251e-34
)


24
(
0.07135216
0.024486502
0.0059607968
0.001961532
0.00080023385
0.00023326352
0.00023399346
0.00010238652
0.00012981169
0.022781612
0.0014256912
0.077281304
0.021651594
0.0092276797
0.004869883
0.0014897333
0.00098628629
0.00024094751
0.0080076344
0.0061683127
0.0022277844
0.0011339061
0.00064015804
0.00050691593
)


27
(
0.04844643
0.049467994
0.0076448545
0.0013016047
0.00029176439
0.0001220792
0.036266674
0.024311102
0.014789021
0.0012904374
0.00085376305
0.00044215445
0.00031954295
0.019316917
0.0150236
0.010914221
0.0040205133
0.0027064528
0.012500495
0.0039604162
0.0016795594
0.00082436133
0.00080508071
5.5117438e-36
8.1606982e-36
1.2085688e-35
2.7507903e-34
)


23
(
0.0030968094
0.0029541457
0.003186443
0.0014298697
0.00062026737
0.00031620709
0.0073481574
0.0076476397
0.0071407896
0.0022352129
0.0019098431
0.0010966319
0.00083240373
0.0075038905
0.01144704
0.0096639328
0.0061254602
0.0038649249
0.0093764455
0.0054179557
0.003415126
0.0020632271
0.0018123897
)


26
(
0.0055388874
0.013355002
0.012609815
0.0078437141
0.0047178249
0.001606621
0.0014077114
0.00057617867
0.00066726341
0.015938769
0.0083939077
0.018289551
0.019628597
0.015214535
0.017118259
0.0066619479
0.0052602128
0.0012324136
0.0061306882
0.012204783
0.0072129149
0.0049203074
0.0029843879
0.0022756645
1.8784022e-35
7.9515521e-35
)


25
(
0.0013034968
0.0013024998
0.0016316118
0.00083118659
0.00048092138
0.00031526265
0.0033465694
0.0037301679
0.0038207991
0.0015582142
0.0016269175
0.0010511806
0.00086882573
0.0037645445
0.0070369292
0.0059629028
0.0045328149
0.0026061147
0.0057205197
0.004013492
0.0029369042
0.0021620444
0.0016725262
1.1807861e-34
1.7799546e-33
)


27
(
1.075908e-35
2.0269577e-35
1.1994193e-35
5.5545447e-35
0.0005152552
0.00055427564
0.00083801176
0.00050555015
0.00040415918
0.00034170252
0.0013927967
0.0016330445
0.001918401
0.001137127
0.0014407919
0.0010616653
0.00096439692
0.0016762523
0.0035937436
0.0031849438
0.003092826
0.0017443247
0.0029085763
0.002530983
0.0024218446
0.0023104453
0.0015333481
)


27
(
2.2167915e-34
6.6965087e-34
0.0013564319
0.0030015807
0.0033359531
0.0024072531
0.0017544041
0.0010642897
0.0014352135
0.00067767464
0.0008767792
0.0047772592
0.0051767629
0.0070127241
0.0096091029
0.0067750707
0.0082015983
0.0047775582
0.0048553654
0.001493969
0.0037917351
0.0075166981
0.0053338503
0.0046096065
0.0033702791
0.0029881969
6.961563e-35
)


25
(
5.3394711e-35
0.0059615236
0.011143744
0.016024913
0.0099375218
0.0048774395
0.0012204639
0.0090069646
0.016409445
0.022376115
0.014144519
0.0084557803
0.0039740706
0.0024629503
0.0066818367
0.014074063
0.018695608
0.015368362
0.015716929
0.0074392087
0.0091074799
0.0089971415
0.0048923822
0.0051227849
1.2301315e-34
)


26
(
4.0587624e-36
0.00057909885
0.0013564019
0.0016803879
0.0013385304
0.0010556288
0.00081869738
0.0014245038
0.00075106563
0.0010711479
0.0023056227
0.0038443019
0.0033367174
0.0052534676
0.0038023287
0.0051722369
0.0036975786
0.0044739106
0.00169276
0.0021538623
0.0048483269
0.0040428423
0.0042086328
0.0035650837
0.0036095008
2.3551131e-35
)


25
(
1.3732433e-35
0.0072432962
0.052972674
0.044839251
0.049453052
0.057458412
0.022956823
0.0041185331
0.0011585673
0.00092863418
0.016512486
0.02951261
0.0075774076
0.0095127377
0.011320309
0.023458888
0.0091802613
0.0094414357
0.0017309096
0.0020461955
0.0075308422
0.0059204598
0.0053723507
0.0034668437
0.0022922758
)


25
(
0.0019169091
0.024743901
0.095437263
0.079965102
0.032582408
0.001451256
0.0024680227
0.0087435587
0.024063282
0.037614322
0.01143731
0.0042715586
0.0021974596
0.0017525249
0.0054864708
0.011634412
0.013005936
0.021777467
0.0022116951
0.0053719313
0.0075112333
0.0037031129
0.0045501166
3.133149e-34
9.2662747e-36
)


25
(
7.4882001e-37
0.00029830353
0.00069041336
0.00087726896
0.00072294737
0.00058716923
0.00052001583
0.0010931548
0.00063729697
0.001017365
0.0012149228
0.002422463
0.001830396
0.0030253095
0.0021472239
0.0030267308
0.0024400275
0.0032990265
0.0014967675
0.0012928669
0.0029759089
0.0026946665
0.0031633535
0.0030118305
0.0035135683
)


26
(
1.0965946e-34
1.0039546e-34
0.0011634067
0.0021175053
0.004498634
0.0031474669
0.002119446
0.0011197867
0.0025497777
0.0044799445
0.0076651361
0.0061652501
0.0058770073
0.0035872532
0.0027316238
0.0025560196
0.0070756786
0.0092408182
0.010462848
0.0081081611
0.0040845843
0.0065768288
0.0077992962
0.0058522515
0.0047639357
7.0306721e-35
)


26
(
5.8095627e-34
0.00044461813
0.0016600596
0.0030304009
0.0034697872
0.0036882988
0.0039952201
0.0074098354
0.0041644288
0.0056883273
0.0026489145
0.014250148
0.0021455043
0.0041594835
0.0044956738
0.010180042
0.008524752
0.015498641
0.0070083498
0.0013031555
0.0053466747
0.0062157386
0.0093485688
0.010154457
0.011377392
1.4553865e-34
)


27
(
0.00037655779
0.00059238518
0.0013119713
0.0010625422
0.0013027545
0.0013175018
0.00092270294
0.001476661
0.0025268741
0.0029228716
0.0043118274
0.003577105
0.0034465019
0.001025089
0.0030142012
0.0036712059
0.0053277175
0.0036059359
0.0018619111
0.0032935743
0.0053679221
0.0068060537
0.0039402204
1.3686317e-34
8.693823e-34
1.2963293e-35
1.8714154e-35
)


24
(
0.0001443842
0.00034759777
0.00047161718
0.00042143604
0.00036792609
0.00040702597
0.0011092285
0.00074325495
0.0013645338
0.00062577085
0.0017998644
0.00091001064
0.0016047569
0.0011796153
0.0018502564
0.0017480925
0.0029440326
0.0017439517
0.0006832067
0.0017472264
0.0018199543
0.0026338099
0.0030500627
0.0043822747
)


28
(
5.6771929e-34
1.901231e-35
0.00023152588
0.00066544608
0.0010326377
0.001046365
0.0010113156
0.0012378995
0.0032013984
0.00207719
0.003482365
0.0011623013
0.0049831841
0.0013216245
0.0024857703
0.0021719834
0.0041033833
0.0039628783
0.0074548551
0.004223017
0.00092539235
0.0030266242
0.0034917468
0.0055012619
0.006523226
0.008723891
1.9870116e-34
2.91148e-35
)


25
(
0.00022132071
0.00092635305
0.0021011595
0.003451944
0.0060971849
0.019340906
0.033834075
0.020011103
0.017585287
0.0015388871
0.032958338
0.0010783637
0.0022749678
0.0028173564
0.009083268
0.009979399
0.031010863
0.014843347
0.00068053539
0.0035035909
0.0051344878
0.010689783
0.014405103
0.01557691
7.5080453e-35
)


24
(
1.1020367e-34
0.00034598482
0.00082379723
0.0029549894
0.0041482401
0.012011401
0.011645336
0.00076241387
0.0015920907
0.0041350346
0.014305718
0.021621501
0.019414383
0.017960278
0.00077266318
0.0027217328
0.0046313591
0.0095547684
0.010169472
0.0013626805
0.0041871517
0.012001006
0.018107344
0.010361146
)


25
(
1.0648139e-35
1.4100259e-35
0.00017741087
0.00024596414
0.00050464115
0.00039487962
0.00053636616
0.00075526434
0.00046160296
0.00067055762
0.0010503317
0.0011551347
0.0019789916
0.0018900253
0.002130182
0.000543985
0.0015400646
0.0016857
0.0024605354
0.0014855856
0.0010403869
0.0016150443
0.0026483429
0.0043356177
0.0020742138
)


27
(
1.1626692e-35
1.0216121e-34
7.8045111e-05
0.00020940126
0.00098404991
0.0027259599
0.062940669
0.10327233
0.00017120296
0.00037882302
0.001178303
0.012399929
0.021579841
0.024790785
0.033356377
0.00017352108
0.0006516182
0.0012265488
0.0032194877
0.0044725694
0.00031352463
0.0011903787
0.0051656014
0.012788457
0.0054616378
3.4913229e-35
2.8584251e-34
)


26
(
7.3063454e-36
4.925448e-35
0.00019096949
0.00033858684
0.0009057923
0.00090913501
0.0018440086
0.0029189567
0.00046446189
0.00080632248
0.0016287942
0.0031227398
0.0058834115
0.0061244604
0.0071175282
0.00051504111
0.0016840582
0.0022917046
0.0043172374
0.0032110995
0.00097305353
0.0022862928
0.0055561357
0.011027582
0.0048596041
7.6134284e-35
)


34
(
9.4312916e-05
0.00016983074
0.00048237241
0.00053552526
0.0016389921
0.0048793301
0.00023161315
0.00040556306
0.00085890644
0.0021576386
0.0051295234
0.0069224975
0.010558893
0.00025967426
0.00087620947
0.0012185916
0.002609445
0.0019948331
0.00050249913
0.0012947014
0.0039650808
0.012373428
0.0040038585
0.00011399951
0.00027110688
0.00044584934
0.00060327103
0.0015644022
0.00032498198
0.00068478057
0.0021616678
0.0030891996
0.00042925314
0.00067323189
)


37
(
3.9936486e-36
2.0079846e-35
6.5188267e-05
0.00015714439
0.00021778686
0.00020094421
0.00018071903
0.00022598098
0.00074936503
0.00056934319
0.0012296946
0.0002873602
0.00098097424
0.00042218894
0.00076528651
0.00056142405
0.00091663219
0.00095009563
0.0018382603
0.0013708432
0.00033104285
0.00087040947
0.00097473853
0.0016067551
0.002160118
0.0038627946
8.6676311e-05
3.8415534e-05
0.00014757146
2.8553581e-05
5.1363836e-05
0.00025657472
0.00020911852
0.00020639889
0.00021211295
0.00038697988
0.00023725352
)


36
(
8.1820981e-05
0.00021862705
0.00033139488
0.00033702067
0.0003303968
0.00050234681
0.0019693134
0.0016441201
0.0037391389
0.0003966279
0.002008725
0.00050430207