// -*- C++ -*-
// File generated by PyFoam - sorry for the ugliness

FoamFile
{
 version 2.0;
 format ascii;
 class dictionary;
 object changeDictionaryDict;
}

T
{
  internalField uniform 285;
  boundaryField
  {
    container
    {
      type zeroGradient;
    }
    battery5_2_to_airInside
    {
      type compressible::turbulentTemperatureCoupledBaffleMixed;
      Tnbr T;
      thicknessLayers
        (
          0.01
        );
      kappaLayers
        (
          0.5
        );
      kappaMethod directionalSolidThermo;
      alphaAni Anialpha;
      value $internalField;
    }
  }
}

p
{
  internalField uniform 100000;
  boundaryField
  {
  }
} 	// ************************************************************************* //

