/*--------------------------------*- C++ -*----------------------------------*\
| =========                 |                                                 |
| \\      /  F ield         | OpenFOAM: The Open Source CFD Toolbox           |
|  \\    /   O peration     | Version:  v2006                                 |
|   \\  /    A nd           | Website:  www.openfoam.com                      |
|    \\/     M anipulation  |                                                 |
\*---------------------------------------------------------------------------*/
FoamFile
{
    version     2.0;
    format      ascii;
    class       dictionary;
    object      blockMeshDict;
}
// * * * * * * * * * * * * * * * * * * * * * * * * * * * * * * * * * * * * * //

scale   1;

length  1.12;
width	0.8;
height	0.8;

vertices
(
 ($length     0          0      ) // 0
 ($length     $width     0      ) // 1
 (0           $width     0      ) // 2
 (0           0          0      ) // 3
 ($length     0          $height) // 4
 ($length     $width     $height) // 5
 (0           $width     $height) // 6
 (0           0          $height) // 7

);

// cells have a size of 8cm x 8cm x 8cm
blocks
(
 hex (0 1 2 3 4 5 6 7) (5 7 5) simpleGrading (1 1 1)
);
edges
(
);
patches
(
    patch air
    (
        (4 5 6 7)       
        (1 2 6 5)
        (0 1 5 4)
    )
    patch bottom
	(
		(0 3 2 1)
	)
	symmetry symmetryPlanes
	(
		(3 7 6 2)
		(0 4 7 3)
	)
);
mergePatchPairs
(
);
// ************************************************************************* //
