// -*- C++ -*-
// File generated by PyFoam - sorry for the ugliness

FoamFile
{
 version 2.0;
 format ascii;
 class dictionary;
 location "system";
 object controlDict;
}

application chtMultiRegionFoam;

startFrom latestTime;

startTime 0.001;

stopAt endTime;

endTime 86193.0;

deltaT 0.05;

writeControl adjustable;

writeInterval 1675.0;

purgeWrite 0;

writeFormat ascii;

writePrecision 8;

writeCompression yes;
timeFormat general;

timePrecision 6;

runTimeModifiable yes;
maxCo 32; 	// Maximum diffusion number

maxDi 10.0;

adjustTimeStep yes;

functions
{
  wallHeatFlux
  {
    type wallHeatFlux;
    libs
      (
        "fieldFunctionObjects"
      );
    region airInside;
    qr qr;
    executeControl writeTime;
    executeInterval 1;
    writeControl writeTime;
    writeInterval 1;
  }
  wallTemperature_airInside
  {
    type surfaceFieldValue;
    libs
      (
        "fieldFunctionObjects"
      );
    enabled yes;
    region airInside;
    fields
      (
        T
      );
    operation areaAverage;
    regionType patch;
    name carrier;
    writeFields no;
    executeControl writeTime;
    executeInterval 1;
    writeControl writeTime;
    writeInterval 1;
  }
  average_airInside
  {
    type volFieldValue;
    libs
      (
        "fieldFunctionObjects"
      ); 	// enabled         false;
    region airInside;
    fields
      (
        T
      );
    operation volAverage;
    regionType all;
    writeFields no;
    executeControl writeTime;
    executeInterval 1;
    writeControl writeTime;
    writeInterval 1;
  }
  min_airInside
  {
    type volFieldValue;
    libs
      (
        "fieldFunctionObjects"
      ); 	// enabled         false;
    region airInside;
    fields
      (
        T
      );
    operation min;
    regionType all;
    writeFields no;
    executeControl writeTime;
    executeInterval 1;
    writeControl writeTime;
    writeInterval 1;
  }
  max_airInside
  {
    type volFieldValue;
    libs
      (
        "fieldFunctionObjects"
      ); 	// enabled         false;
    region airInside;
    fields
      (
        T
      );
    operation max;
    regionType all;
    writeFields no;
    executeControl writeTime;
    executeInterval 1;
    writeControl writeTime;
    writeInterval 1;
  }
  wallTemperature_battery0_0
  {
    type surfaceFieldValue;
    libs
      (
        "fieldFunctionObjects"
      );
    enabled yes;
    region battery0_0;
    fields
      (
        T
      );
    operation areaAverage;
    regionType patch;
    name battery0_0_to_airInside;
    writeFields no;
    executeControl writeTime;
    executeInterval 1;
    writeControl writeTime;
    writeInterval 1;
  }
  average_battery0_0
  {
    type volFieldValue;
    libs
      (
        "fieldFunctionObjects"
      );
    region battery0_0;
    fields
      (
        T
      );
    operation volAverage;
    regionType all;
    writeFields no;
    executeControl writeTime;
    executeInterval 1;
    writeControl writeTime;
    writeInterval 1;
  }
  min_battery0_0
  {
    type volFieldValue;
    libs
      (
        "fieldFunctionObjects"
      );
    region battery0_0;
    fields
      (
        T
      );
    operation min;
    regionType all;
    writeFields no;
    executeControl writeTime;
    executeInterval 1;
    writeControl writeTime;
    writeInterval 1;
  }
  max_battery0_0
  {
    type volFieldValue;
    libs
      (
        "fieldFunctionObjects"
      );
    region battery0_0;
    fields
      (
        T
      );
    operation max;
    regionType all;
    writeFields no;
    executeControl writeTime;
    executeInterval 1;
    writeControl writeTime;
    writeInterval 1;
  } 	// //finds minimal and maximal Values in batteries region// minMaxValues// {//     type        fieldMinMax;//     libs        ("libfieldFunctionObjects.so");//     region      airOutside;//     write       false;//     fields      (T);// }//     //controls simulation during runtime//     runTimeControl//     {//         type        runTimeControl;//         libs        ("libutilityFunctionObjects.so");//         region      batteries;//         conditions//         {//             // if minimal temperature exceeds value, simulation stops//             minTempExceeded//             {//                 type            minMax;//                 functionObject  minMaxValues;//                 fields          (min(T));//                 mode            maximum;//                 value           272;//             }//         }//     }
  average_battery0_1
  {
    type volFieldValue;
    libs
      (
        "fieldFunctionObjects"
      );
    region battery0_1;
    fields
      (
        T
      );
    operation volAverage;
    regionType all;
    writeFields no;
    executeControl writeTime;
    executeInterval 1;
    writeControl writeTime;
    writeInterval 1;
  }
  min_battery0_1
  {
    type volFieldValue;
    libs
      (
        "fieldFunctionObjects"
      );
    region battery0_1;
    fields
      (
        T
      );
    operation min;
    regionType all;
    writeFields no;
    executeControl writeTime;
    executeInterval 1;
    writeControl writeTime;
    writeInterval 1;
  }
  max_battery0_1
  {
    type volFieldValue;
    libs
      (
        "fieldFunctionObjects"
      );
    region battery0_1;
    fields
      (
        T
      );
    operation max;
    regionType all;
    writeFields no;
    executeControl writeTime;
    executeInterval 1;
    writeControl writeTime;
    writeInterval 1;
  }
  wallTemperature_battery0_1
  {
    type surfaceFieldValue;
    libs
      (
        "fieldFunctionObjects"
      );
    enabled yes;
    region battery0_1;
    fields
      (
        T
      );
    operation areaAverage;
    regionType patch;
    name battery0_1_to_airInside;
    writeFields no;
    executeControl writeTime;
    executeInterval 1;
    writeControl writeTime;
    writeInterval 1;
  }
  average_battery0_2
  {
    type volFieldValue;
    libs
      (
        "fieldFunctionObjects"
      );
    region battery0_2;
    fields
      (
        T
      );
    operation volAverage;
    regionType all;
    writeFields no;
    executeControl writeTime;
    executeInterval 1;
    writeControl writeTime;
    writeInterval 1;
  }
  min_battery0_2
  {
    type volFieldValue;
    libs
      (
        "fieldFunctionObjects"
      );
    region battery0_2;
    fields
      (
        T
      );
    operation min;
    regionType all;
    writeFields no;
    executeControl writeTime;
    executeInterval 1;
    writeControl writeTime;
    writeInterval 1;
  }
  max_battery0_2
  {
    type volFieldValue;
    libs
      (
        "fieldFunctionObjects"
      );
    region battery0_2;
    fields
      (
        T
      );
    operation max;
    regionType all;
    writeFields no;
    executeControl writeTime;
    executeInterval 1;
    writeControl writeTime;
    writeInterval 1;
  }
  wallTemperature_battery0_2
  {
    type surfaceFieldValue;
    libs
      (
        "fieldFunctionObjects"
      );
    enabled yes;
    region battery0_2;
    fields
      (
        T
      );
    operation areaAverage;
    regionType patch;
    name battery0_2_to_airInside;
    writeFields no;
    executeControl writeTime;
    executeInterval 1;
    writeControl writeTime;
    writeInterval 1;
  }
  average_battery0_3
  {
    type volFieldValue;
    libs
      (
        "fieldFunctionObjects"
      );
    region battery0_3;
    fields
      (
        T
      );
    operation volAverage;
    regionType all;
    writeFields no;
    executeControl writeTime;
    executeInterval 1;
    writeControl writeTime;
    writeInterval 1;
  }
  min_battery0_3
  {
    type volFieldValue;
    libs
      (
        "fieldFunctionObjects"
      );
    region battery0_3;
    fields
      (
        T
      );
    operation min;
    regionType all;
    writeFields no;
    executeControl writeTime;
    executeInterval 1;
    writeControl writeTime;
    writeInterval 1;
  }
  max_battery0_3
  {
    type volFieldValue;
    libs
      (
        "fieldFunctionObjects"
      );
    region battery0_3;
    fields
      (
        T
      );
    operation max;
    regionType all;
    writeFields no;
    executeControl writeTime;
    executeInterval 1;
    writeControl writeTime;
    writeInterval 1;
  }
  wallTemperature_battery0_3
  {
    type surfaceFieldValue;
    libs
      (
        "fieldFunctionObjects"
      );
    enabled yes;
    region battery0_3;
    fields
      (
        T
      );
    operation areaAverage;
    regionType patch;
    name battery0_3_to_airInside;
    writeFields no;
    executeControl writeTime;
    executeInterval 1;
    writeControl writeTime;
    writeInterval 1;
  }
  average_battery0_4
  {
    type volFieldValue;
    libs
      (
        "fieldFunctionObjects"
      );
    region battery0_4;
    fields
      (
        T
      );
    operation volAverage;
    regionType all;
    writeFields no;
    executeControl writeTime;
    executeInterval 1;
    writeControl writeTime;
    writeInterval 1;
  }
  min_battery0_4
  {
    type volFieldValue;
    libs
      (
        "fieldFunctionObjects"
      );
    region battery0_4;
    fields
      (
        T
      );
    operation min;
    regionType all;
    writeFields no;
    executeControl writeTime;
    executeInterval 1;
    writeControl writeTime;
    writeInterval 1;
  }
  max_battery0_4
  {
    type volFieldValue;
    libs
      (
        "fieldFunctionObjects"
      );
    region battery0_4;
    fields
      (
        T
      );
    operation max;
    regionType all;
    writeFields no;
    executeControl writeTime;
    executeInterval 1;
    writeControl writeTime;
    writeInterval 1;
  }
  wallTemperature_battery0_4
  {
    type surfaceFieldValue;
    libs
      (
        "fieldFunctionObjects"
      );
    enabled yes;
    region battery0_4;
    fields
      (
        T
      );
    operation areaAverage;
    regionType patch;
    name battery0_4_to_airInside;
    writeFields no;
    executeControl writeTime;
    executeInterval 1;
    writeControl writeTime;
    writeInterval 1;
  }
  average_battery0_5
  {
    type volFieldValue;
    libs
      (
        "fieldFunctionObjects"
      );
    region battery0_5;
    fields
      (
        T
      );
    operation volAverage;
    regionType all;
    writeFields no;
    executeControl writeTime;
    executeInterval 1;
    writeControl writeTime;
    writeInterval 1;
  }
  min_battery0_5
  {
    type volFieldValue;
    libs
      (
        "fieldFunctionObjects"
      );
    region battery0_5;
    fields
      (
        T
      );
    operation min;
    regionType all;
    writeFields no;
    executeControl writeTime;
    executeInterval 1;
    writeControl writeTime;
    writeInterval 1;
  }
  max_battery0_5
  {
    type volFieldValue;
    libs
      (
        "fieldFunctionObjects"
      );
    region battery0_5;
    fields
      (
        T
      );
    operation max;
    regionType all;
    writeFields no;
    executeControl writeTime;
    executeInterval 1;
    writeControl writeTime;
    writeInterval 1;
  }
  wallTemperature_battery0_5
  {
    type surfaceFieldValue;
    libs
      (
        "fieldFunctionObjects"
      );
    enabled yes;
    region battery0_5;
    fields
      (
        T
      );
    operation areaAverage;
    regionType patch;
    name battery0_5_to_airInside;
    writeFields no;
    executeControl writeTime;
    executeInterval 1;
    writeControl writeTime;
    writeInterval 1;
  }
  average_battery0_6
  {
    type volFieldValue;
    libs
      (
        "fieldFunctionObjects"
      );
    region battery0_6;
    fields
      (
        T
      );
    operation volAverage;
    regionType all;
    writeFields no;
    executeControl writeTime;
    executeInterval 1;
    writeControl writeTime;
    writeInterval 1;
  }
  min_battery0_6
  {
    type volFieldValue;
    libs
      (
        "fieldFunctionObjects"
      );
    region battery0_6;
    fields
      (
        T
      );
    operation min;
    regionType all;
    writeFields no;
    executeControl writeTime;
    executeInterval 1;
    writeControl writeTime;
    writeInterval 1;
  }
  max_battery0_6
  {
    type volFieldValue;
    libs
      (
        "fieldFunctionObjects"
      );
    region battery0_6;
    fields
      (
        T
      );
    operation max;
    regionType all;
    writeFields no;
    executeControl writeTime;
    executeInterval 1;
    writeControl writeTime;
    writeInterval 1;
  }
  wallTemperature_battery0_6
  {
    type surfaceFieldValue;
    libs
      (
        "fieldFunctionObjects"
      );
    enabled yes;
    region battery0_6;
    fields
      (
        T
      );
    operation areaAverage;
    regionType patch;
    name battery0_6_to_airInside;
    writeFields no;
    executeControl writeTime;
    executeInterval 1;
    writeControl writeTime;
    writeInterval 1;
  }
  average_battery0_7
  {
    type volFieldValue;
    libs
      (
        "fieldFunctionObjects"
      );
    region battery0_7;
    fields
      (
        T
      );
    operation volAverage;
    regionType all;
    writeFields no;
    executeControl writeTime;
    executeInterval 1;
    writeControl writeTime;
    writeInterval 1;
  }
  min_battery0_7
  {
    type volFieldValue;
    libs
      (
        "fieldFunctionObjects"
      );
    region battery0_7;
    fields
      (
        T
      );
    operation min;
    regionType all;
    writeFields no;
    executeControl writeTime;
    executeInterval 1;
    writeControl writeTime;
    writeInterval 1;
  }
  max_battery0_7
  {
    type volFieldValue;
    libs
      (
        "fieldFunctionObjects"
      );
    region battery0_7;
    fields
      (
        T
      );
    operation max;
    regionType all;
    writeFields no;
    executeControl writeTime;
    executeInterval 1;
    writeControl writeTime;
    writeInterval 1;
  }
  wallTemperature_battery0_7
  {
    type surfaceFieldValue;
    libs
      (
        "fieldFunctionObjects"
      );
    enabled yes;
    region battery0_7;
    fields
      (
        T
      );
    operation areaAverage;
    regionType patch;
    name battery0_7_to_airInside;
    writeFields no;
    executeControl writeTime;
    executeInterval 1;
    writeControl writeTime;
    writeInterval 1;
  }
  average_battery1_0
  {
    type volFieldValue;
    libs
      (
        "fieldFunctionObjects"
      );
    region battery1_0;
    fields
      (
        T
      );
    operation volAverage;
    regionType all;
    writeFields no;
    executeControl writeTime;
    executeInterval 1;
    writeControl writeTime;
    writeInterval 1;
  }
  min_battery1_0
  {
    type volFieldValue;
    libs
      (
        "fieldFunctionObjects"
      );
    region battery1_0;
    fields
      (
        T
      );
    operation min;
    regionType all;
    writeFields no;
    executeControl writeTime;
    executeInterval 1;
    writeControl writeTime;
    writeInterval 1;
  }
  max_battery1_0
  {
    type volFieldValue;
    libs
      (
        "fieldFunctionObjects"
      );
    region battery1_0;
    fields
      (
        T
      );
    operation max;
    regionType all;
    writeFields no;
    executeControl writeTime;
    executeInterval 1;
    writeControl writeTime;
    writeInterval 1;
  }
  wallTemperature_battery1_0
  {
    type surfaceFieldValue;
    libs
      (
        "fieldFunctionObjects"
      );
    enabled yes;
    region battery1_0;
    fields
      (
        T
      );
    operation areaAverage;
    regionType patch;
    name battery1_0_to_airInside;
    writeFields no;
    executeControl writeTime;
    executeInterval 1;
    writeControl writeTime;
    writeInterval 1;
  }
  average_battery1_1
  {
    type volFieldValue;
    libs
      (
        "fieldFunctionObjects"
      );
    region battery1_1;
    fields
      (
        T
      );
    operation volAverage;
    regionType all;
    writeFields no;
    executeControl writeTime;
    executeInterval 1;
    writeControl writeTime;
    writeInterval 1;
  }
  min_battery1_1
  {
    type volFieldValue;
    libs
      (
        "fieldFunctionObjects"
      );
    region battery1_1;
    fields
      (
        T
      );
    operation min;
    regionType all;
    writeFields no;
    executeControl writeTime;
    executeInterval 1;
    writeControl writeTime;
    writeInterval 1;
  }
  max_battery1_1
  {
    type volFieldValue;
    libs
      (
        "fieldFunctionObjects"
      );
    region battery1_1;
    fields
      (
        T
      );
    operation max;
    regionType all;
    writeFields no;
    executeControl writeTime;
    executeInterval 1;
    writeControl writeTime;
    writeInterval 1;
  }
  wallTemperature_battery1_1
  {
    type surfaceFieldValue;
    libs
      (
        "fieldFunctionObjects"
      );
    enabled yes;
    region battery1_1;
    fields
      (
        T
      );
    operation areaAverage;
    regionType patch;
    name battery1_1_to_airInside;
    writeFields no;
    executeControl writeTime;
    executeInterval 1;
    writeControl writeTime;
    writeInterval 1;
  }
  average_battery1_2
  {
    type volFieldValue;
    libs
      (
        "fieldFunctionObjects"
      );
    region battery1_2;
    fields
      (
        T
      );
    operation volAverage;
    regionType all;
    writeFields no;
    executeControl writeTime;
    executeInterval 1;
    writeControl writeTime;
    writeInterval 1;
  }
  min_battery1_2
  {
    type volFieldValue;
    libs
      (
        "fieldFunctionObjects"
      );
    region battery1_2;
    fields
      (
        T
      );
    operation min;
    regionType all;
    writeFields no;
    executeControl writeTime;
    executeInterval 1;
    writeControl writeTime;
    writeInterval 1;
  }
  max_battery1_2
  {
    type volFieldValue;
    libs
      (
        "fieldFunctionObjects"
      );
    region battery1_2;
    fields
      (
        T
      );
    operation max;
    regionType all;
    writeFields no;
    executeControl writeTime;
    executeInterval 1;
    writeControl writeTime;
    writeInterval 1;
  }
  wallTemperature_battery1_2
  {
    type surfaceFieldValue;
    libs
      (
        "fieldFunctionObjects"
      );
    enabled yes;
    region battery1_2;
    fields
      (
        T
      );
    operation areaAverage;
    regionType patch;
    name battery1_2_to_airInside;
    writeFields no;
    executeControl writeTime;
    executeInterval 1;
    writeControl writeTime;
    writeInterval 1;
  }
  average_battery1_3
  {
    type volFieldValue;
    libs
      (
        "fieldFunctionObjects"
      );
    region battery1_3;
    fields
      (
        T
      );
    operation volAverage;
    regionType all;
    writeFields no;
    executeControl writeTime;
    executeInterval 1;
    writeControl writeTime;
    writeInterval 1;
  }
  min_battery1_3
  {
    type volFieldValue;
    libs
      (
        "fieldFunctionObjects"
      );
    region battery1_3;
    fields
      (
        T
      );
    operation min;
    regionType all;
    writeFields no;
    executeControl writeTime;
    executeInterval 1;
    writeControl writeTime;
    writeInterval 1;
  }
  max_battery1_3
  {
    type volFieldValue;
    libs
      (
        "fieldFunctionObjects"
      );
    region battery1_3;
    fields
      (
        T
      );
    operation max;
    regionType all;
    writeFields no;
    executeControl writeTime;
    executeInterval 1;
    writeControl writeTime;
    writeInterval 1;
  }
  wallTemperature_battery1_3
  {
    type surfaceFieldValue;
    libs
      (
        "fieldFunctionObjects"
      );
    enabled yes;
    region battery1_3;
    fields
      (
        T
      );
    operation areaAverage;
    regionType patch;
    name battery1_3_to_airInside;
    writeFields no;
    executeControl writeTime;
    executeInterval 1;
    writeControl writeTime;
    writeInterval 1;
  }
  average_battery1_4
  {
    type volFieldValue;
    libs
      (
        "fieldFunctionObjects"
      );
    region battery1_4;
    fields
      (
        T
      );
    operation volAverage;
    regionType all;
    writeFields no;
    executeControl writeTime;
    executeInterval 1;
    writeControl writeTime;
    writeInterval 1;
  }
  min_battery1_4
  {
    type volFieldValue;
    libs
      (
        "fieldFunctionObjects"
      );
    region battery1_4;
    fields
      (
        T
      );
    operation min;
    regionType all;
    writeFields no;
    executeControl writeTime;
    executeInterval 1;
    writeControl writeTime;
    writeInterval 1;
  }
  max_battery1_4
  {
    type volFieldValue;
    libs
      (
        "fieldFunctionObjects"
      );
    region battery1_4;
    fields
      (
        T
      );
    operation max;
    regionType all;
    writeFields no;
    executeControl writeTime;
    executeInterval 1;
    writeControl writeTime;
    writeInterval 1;
  }
  wallTemperature_battery1_4
  {
    type surfaceFieldValue;
    libs
      (
        "fieldFunctionObjects"
      );
    enabled yes;
    region battery1_4;
    fields
      (
        T
      );
    operation areaAverage;
    regionType patch;
    name battery1_4_to_airInside;
    writeFields no;
    executeControl writeTime;
    executeInterval 1;
    writeControl writeTime;
    writeInterval 1;
  }
  average_battery1_5
  {
    type volFieldValue;
    libs
      (
        "fieldFunctionObjects"
      );
    region battery1_5;
    fields
      (
        T
      );
    operation volAverage;
    regionType all;
    writeFields no;
    executeControl writeTime;
    executeInterval 1;
    writeControl writeTime;
    writeInterval 1;
  }
  min_battery1_5
  {
    type volFieldValue;
    libs
      (
        "fieldFunctionObjects"
      );
    region battery1_5;
    fields
      (
        T
      );
    operation min;
    regionType all;
    writeFields no;
    executeControl writeTime;
    executeInterval 1;
    writeControl writeTime;
    writeInterval 1;
  }
  max_battery1_5
  {
    type volFieldValue;
    libs
      (
        "fieldFunctionObjects"
      );
    region battery1_5;
    fields
      (
        T
      );
    operation max;
    regionType all;
    writeFields no;
    executeControl writeTime;
    executeInterval 1;
    writeControl writeTime;
    writeInterval 1;
  }
  wallTemperature_battery1_5
  {
    type surfaceFieldValue;
    libs
      (
        "fieldFunctionObjects"
      );
    enabled yes;
    region battery1_5;
    fields
      (
        T
      );
    operation areaAverage;
    regionType patch;
    name battery1_5_to_airInside;
    writeFields no;
    executeControl writeTime;
    executeInterval 1;
    writeControl writeTime;
    writeInterval 1;
  }
  average_battery1_6
  {
    type volFieldValue;
    libs
      (
        "fieldFunctionObjects"
      );
    region battery1_6;
    fields
      (
        T
      );
    operation volAverage;
    regionType all;
    writeFields no;
    executeControl writeTime;
    executeInterval 1;
    writeControl writeTime;
    writeInterval 1;
  }
  min_battery1_6
  {
    type volFieldValue;
    libs
      (
        "fieldFunctionObjects"
      );
    region battery1_6;
    fields
      (
        T
      );
    operation min;
    regionType all;
    writeFields no;
    executeControl writeTime;
    executeInterval 1;
    writeControl writeTime;
    writeInterval 1;
  }
  max_battery1_6
  {
    type volFieldValue;
    libs
      (
        "fieldFunctionObjects"
      );
    region battery1_6;
    fields
      (
        T
      );
    operation max;
    regionType all;
    writeFields no;
    executeControl writeTime;
    executeInterval 1;
    writeControl writeTime;
    writeInterval 1;
  }
  wallTemperature_battery1_6
  {
    type surfaceFieldValue;
    libs
      (
        "fieldFunctionObjects"
      );
    enabled yes;
    region battery1_6;
    fields
      (
        T
      );
    operation areaAverage;
    regionType patch;
    name battery1_6_to_airInside;
    writeFields no;
    executeControl writeTime;
    executeInterval 1;
    writeControl writeTime;
    writeInterval 1;
  }
  average_battery1_7
  {
    type volFieldValue;
    libs
      (
        "fieldFunctionObjects"
      );
    region battery1_7;
    fields
      (
        T
      );
    operation volAverage;
    regionType all;
    writeFields no;
    executeControl writeTime;
    executeInterval 1;
    writeControl writeTime;
    writeInterval 1;
  }
  min_battery1_7
  {
    type volFieldValue;
    libs
      (
        "fieldFunctionObjects"
      );
    region battery1_7;
    fields
      (
        T
      );
    operation min;
    regionType all;
    writeFields no;
    executeControl writeTime;
    executeInterval 1;
    writeControl writeTime;
    writeInterval 1;
  }
  max_battery1_7
  {
    type volFieldValue;
    libs
      (
        "fieldFunctionObjects"
      );
    region battery1_7;
    fields
      (
        T
      );
    operation max;
    regionType all;
    writeFields no;
    executeControl writeTime;
    executeInterval 1;
    writeControl writeTime;
    writeInterval 1;
  }
  wallTemperature_battery1_7
  {
    type surfaceFieldValue;
    libs
      (
        "fieldFunctionObjects"
      );
    enabled yes;
    region battery1_7;
    fields
      (
        T
      );
    operation areaAverage;
    regionType patch;
    name battery1_7_to_airInside;
    writeFields no;
    executeControl writeTime;
    executeInterval 1;
    writeControl writeTime;
    writeInterval 1;
  }
  average_battery2_0
  {
    type volFieldValue;
    libs
      (
        "fieldFunctionObjects"
      );
    region battery2_0;
    fields
      (
        T
      );
    operation volAverage;
    regionType all;
    writeFields no;
    executeControl writeTime;
    executeInterval 1;
    writeControl writeTime;
    writeInterval 1;
  }
  min_battery2_0
  {
    type volFieldValue;
    libs
      (
        "fieldFunctionObjects"
      );
    region battery2_0;
    fields
      (
        T
      );
    operation min;
    regionType all;
    writeFields no;
    executeControl writeTime;
    executeInterval 1;
    writeControl writeTime;
    writeInterval 1;
  }
  max_battery2_0
  {
    type volFieldValue;
    libs
      (
        "fieldFunctionObjects"
      );
    region battery2_0;
    fields
      (
        T
      );
    operation max;
    regionType all;
    writeFields no;
    executeControl writeTime;
    executeInterval 1;
    writeControl writeTime;
    writeInterval 1;
  }
  wallTemperature_battery2_0
  {
    type surfaceFieldValue;
    libs
      (
        "fieldFunctionObjects"
      );
    enabled yes;
    region battery2_0;
    fields
      (
        T
      );
    operation areaAverage;
    regionType patch;
    name battery2_0_to_airInside;
    writeFields no;
    executeControl writeTime;
    executeInterval 1;
    writeControl writeTime;
    writeInterval 1;
  }
  average_battery2_1
  {
    type volFieldValue;
    libs
      (
        "fieldFunctionObjects"
      );
    region battery2_1;
    fields
      (
        T
      );
    operation volAverage;
    regionType all;
    writeFields no;
    executeControl writeTime;
    executeInterval 1;
    writeControl writeTime;
    writeInterval 1;
  }
  min_battery2_1
  {
    type volFieldValue;
    libs
      (
        "fieldFunctionObjects"
      );
    region battery2_1;
    fields
      (
        T
      );
    operation min;
    regionType all;
    writeFields no;
    executeControl writeTime;
    executeInterval 1;
    writeControl writeTime;
    writeInterval 1;
  }
  max_battery2_1
  {
    type volFieldValue;
    libs
      (
        "fieldFunctionObjects"
      );
    region battery2_1;
    fields
      (
        T
      );
    operation max;
    regionType all;
    writeFields no;
    executeControl writeTime;
    executeInterval 1;
    writeControl writeTime;
    writeInterval 1;
  }
  wallTemperature_battery2_1
  {
    type surfaceFieldValue;
    libs
      (
        "fieldFunctionObjects"
      );
    enabled yes;
    region battery2_1;
    fields
      (
        T
      );
    operation areaAverage;
    regionType patch;
    name battery2_1_to_airInside;
    writeFields no;
    executeControl writeTime;
    executeInterval 1;
    writeControl writeTime;
    writeInterval 1;
  }
  average_battery2_2
  {
    type volFieldValue;
    libs
      (
        "fieldFunctionObjects"
      );
    region battery2_2;
    fields
      (
        T
      );
    operation volAverage;
    regionType all;
    writeFields no;
    executeControl writeTime;
    executeInterval 1;
    writeControl writeTime;
    writeInterval 1;
  }
  min_battery2_2
  {
    type volFieldValue;
    libs
      (
        "fieldFunctionObjects"
      );
    region battery2_2;
    fields
      (
        T
      );
    operation min;
    regionType all;
    writeFields no;
    executeControl writeTime;
    executeInterval 1;
    writeControl writeTime;
    writeInterval 1;
  }
  max_battery2_2
  {
    type volFieldValue;
    libs
      (
        "fieldFunctionObjects"
      );
    region battery2_2;
    fields
      (
        T
      );
    operation max;
    regionType all;
    writeFields no;
    executeControl writeTime;
    executeInterval 1;
    writeControl writeTime;
    writeInterval 1;
  }
  wallTemperature_battery2_2
  {
    type surfaceFieldValue;
    libs
      (
        "fieldFunctionObjects"
      );
    enabled yes;
    region battery2_2;
    fields
      (
        T
      );
    operation areaAverage;
    regionType patch;
    name battery2_2_to_airInside;
    writeFields no;
    executeControl writeTime;
    executeInterval 1;
    writeControl writeTime;
    writeInterval 1;
  }
  average_battery2_3
  {
    type volFieldValue;
    libs
      (
        "fieldFunctionObjects"
      );
    region battery2_3;
    fields
      (
        T
      );
    operation volAverage;
    regionType all;
    writeFields no;
    executeControl writeTime;
    executeInterval 1;