/*--------------------------------*- C++ -*----------------------------------*\
| =========                 |                                                 |
| \\      /  F ield         | OpenFOAM: The Open Source CFD Toolbox           |
|  \\    /   O peration     | Version:  v2006                                 |
|   \\  /    A nd           | Website:  www.openfoam.com                      |
|    \\/     M anipulation  |                                                 |
\*---------------------------------------------------------------------------*/

FoamFile
{
    version     2.0;
    format      ascii;
    class       dictionary;
    location    "constant";
    object      radiationProperties;
}
// * * * * * * * * * * * * * * * * * * * * * * * * * * * * * * * * * * * * * //

radiation       off;

radiationModel  none;//opaqueSolid;

absorptionEmissionModel none;

multiBandAbsorptionEmissionCoeffs
{
    absorptivity    (0.9 0.9);
    emissivity      (0.9 0.9);
}

scatterModel    none;

sootModel none;

// ************************************************************************* //
