// -*- C++ -*-
// File generated by PyFoam - sorry for the ugliness

FoamFile
{
 version 2.0;
 format ascii;
 class dictionary;
 object changeDictionaryDict;
}

boundary
{
}

U
{
  internalField uniform (0 0 0);
  boundaryField
  {
    container
    {
      type noSlip;
    }
    bottom
    {
      type noSlip;
    } 	// container// {//     type        wall;// }
  }
}

T
{
  internalField uniform 285;
  boundaryField
  {
    container
    {
      type externalWallHeatFluxTemperature;
      mode coefficient;
      Ta
        (
          281
        );
      h 10;
      kappaMethod fluidThermo;
      qr qr;
      value $internalField;
    }
    bottom
    {
      type zeroGradient;
    } 	// airInside_to_box// {//     type            compressible::turbulentTemperatureRadCoupledMixed;//     Tnbr            T;//     kappaMethod     fluidThermo;//     qrNbr           none;//     qr              qr;//     // thicknessLayers (0.002);//     // kappaLayers     (40);//     kappa           none;//     thermalInertia  true;//     value           $internalField;// }// type            externalWallHeatFluxTemperature;// mode            coefficient;// Ta              uniform 300.0;// h               uniform 10e5;// kappaMethod     fluidThermo;// kappa           none;// thicknessLayers (1 2);// kappaLayers     (100 200);// value           uniform 300.0;
  }
}

p_rgh
{
  internalField uniform 100000.0;
  boundaryField
  {
    container
    {
      type fixedFluxPressure;
      value $internalField;
    }
    bottom
    {
      type fixedFluxPressure;
      value $internalField;
    } 	// air// {//     type            totalPressure;//     p0              $internalField;//     value           $internalField;// }// symmetryPlanes// {// 	type            symmetry;// }// airInside_to_batterie0// {//     type    fixedFluxPressure;//     value   $internalField;// }// airInside_to_box// {//     type    fixedFluxPressure;//     value   $internalField;// }// airInside_to_boxes00// {//     type    fixedFluxPressure;//     value   $internalField;// }
  }
}

p
{
  internalField uniform 100000.0;
  boundaryField
  {
    ".*"
    {
      type calculated;
      value $internalField; 	// symmetryPlanes// {// 	type            symmetry;// }
    }
  }
} 	// ************************************************************************* //

