// -*- C++ -*-
// File generated by PyFoam - sorry for the ugliness

FoamFile
{
 version 2.0;
 format ascii;
 class dictionary;
 location "constant";
 object regionProperties;
}

regions
  (
    fluid

    (
      airInside
    )
    solid

    (
      battery0_0
      battery0_1
      battery0_2
      battery0_3
      battery0_4
      battery0_5
      battery0_6
      battery0_7
    )
  );



// ************************************************************************* //