/*--------------------------------*- C++ -*----------------------------------*\
| =========                 |                                                 |
| \\      /  F ield         | OpenFOAM: The Open Source CFD Toolbox           |
|  \\    /   O peration     | Version:  v2006                                 |
|   \\  /    A nd           | Website:  www.openfoam.com                      |
|    \\/     M anipulation  |                                                 |
\*---------------------------------------------------------------------------*/
FoamFile
{
    version     2.0;
    format      ascii;
    class       dictionary;
    object      viewFactorsDict;
}
// * * * * * * * * * * * * * * * * * * * * * * * * * * * * * * * * * * * * * //

writeViewFactorMatrix     true;
writeFacesAgglomeration   true;
writePatchViewFactors     false;
dumpRays    true;

maxDynListLength     10000000;

airOutside_to_carrier
{
nFacesInCoarsestLevel 20;
featureAngle 15;
}

airOutside_to_ground
{
nFacesInCoarsestLevel 20;
// featureAngle 10;
}

// ************************************************************************* //
