// -*- C++ -*-
// File generated by PyFoam - sorry for the ugliness

FoamFile
{
 version 2.0;
 format ascii;
 class dictionary;
 location "constant";
 object regionProperties;
}

regions
  (
    fluid

    (
      airInside
    )
    solid

    104
    (
      battery0_0
      battery0_1
      battery0_2
      battery0_3
      battery1_0
      battery1_1
      battery1_2
      battery1_3
      battery1_4
      battery1_5
      battery1_6
      battery1_7
      battery2_0
      battery2_1
      battery2_2
      battery2_3
      battery2_4
      battery2_5
      battery2_6
      battery2_7
      battery3_0
      battery3_1
      battery3_2
      battery3_3
      battery3_4
      battery3_5
      battery3_6
      battery3_7
      battery4_0
      battery4_1
      battery4_2
      battery4_3
      battery4_4
      battery4_5
      battery4_6
      battery4_7
      battery4_8
      battery4_9
      battery4_10
      battery4_11
      battery5_0
      battery5_1
      battery5_2
      battery5_3
      battery5_4
      battery5_5
      battery5_6
      battery5_7
      battery6_0
      battery6_1
      battery6_2
      battery6_3
      battery6_4
      battery6_5
      battery6_6
      battery6_7
      battery7_0
      battery7_1
      battery7_2
      battery7_3
      battery7_4
      battery7_5
      battery7_6
      battery7_7
      battery7_8
      battery7_9
      battery7_10
      battery7_11
      battery8_0
      battery8_1
      battery8_2
      battery8_3
      battery8_4
      battery8_5
      battery8_6
      battery8_7
      battery8_8
      battery8_9
      battery8_10
      battery8_11
      battery9_0
      battery9_1
      battery9_2
      battery9_3
      battery9_4
      battery9_5
      battery9_6
      battery9_7
      battery9_8
      battery9_9
      battery9_10
      battery9_11
      battery10_0
      battery10_1
      battery10_2
      battery10_3
      battery10_4
      battery10_5
      battery10_6
      battery10_7
      battery10_8
      battery10_9
      battery10_10
      battery10_11
    )
  );



// ************************************************************************* //