/*--------------------------------*- C++ -*----------------------------------*\
| =========                 |                                                 |
| \\      /  F ield         | OpenFOAM: The Open Source CFD Toolbox           |
|  \\    /   O peration     | Version:  v2006                                 |
|   \\  /    A nd           | Website:  www.openfoam.com                      |
|    \\/     M anipulation  |                                                 |
\*---------------------------------------------------------------------------*/
FoamFile
{
    version     2.0;
    format      ascii;
    class       scalarListList;
    location    "constant/airOutside";
    object      F;
}
// * * * * * * * * * * * * * * * * * * * * * * * * * * * * * * * * * * * * * //


2394
(

765
(
0.00013213091
2.1606492e-05
6.1398727e-06
2.3501366e-06
1.0820306e-06
5.6474067e-07
3.2271196e-07
1.9748488e-07
1.2750544e-07
0.0006073759
0.00014415418
4.6848019e-05
1.9066719e-05
9.0709772e-06
4.827374e-06
2.7930993e-06
1.7237413e-06
1.1196052e-06
0.00037812724
0.00014691041
6.0838533e-05
2.8133167e-05
1.4403932e-05
8.0221517e-06
4.7825505e-06
3.0130886e-06
1.9862651e-06
0.00019515853
0.00010582266
5.4953067e-05
2.9330841e-05
1.6463907e-05
9.7460988e-06
6.0592331e-06
3.9330812e-06
2.6501015e-06
0.00024124319
0.00073307676
0.0002496151
0.00096379653
0.0027872641
0.0011969193
0.00017098847
5.9911033e-05
0.00087086749
0.0003453248
4.3763625e-05
1.8863643e-05
0.00025917824
0.00011813338
1.4680076e-05
7.447272e-06
9.3118238e-05
4.8573823e-05
3.175911e-05
0.0006019705
0.00017803929
8.125675e-06
0.0001257109
5.0679652e-05
2.9273392e-06
3.8861956e-05
1.9104704e-05
1.2959291e-06
1.5448128e-05
8.6559308e-06
6.5809246e-07
7.2562095e-06
4.4547519e-06
3.6853186e-07
3.8322131e-06
2.5156683e-06
2.2205394e-07
2.2064325e-06
1.5242928e-06
1.4161944e-07
1.3571408e-06
9.7596803e-07
8.7940136e-07
0.00091612452
0.0025941714
0.0012380516
0.00057414197
0.0015478718
0.00096305058
0.0009287231
0.00039387262
0.00078785448
0.00041245537
0.00030026288
0.00014148699
0.00033164963
0.00017622463
0.00011240343
5.9658349e-05
0.00014421784
8.1905425e-05
0.00019991203
0.00044186246
0.00019878369
6.0548064e-05
0.0001537127
7.4716699e-05
2.3473304e-05
5.9802879e-05
3.227561e-05
1.079299e-05
2.6697904e-05
1.5756897e-05
5.6026597e-06
1.3385303e-05
8.4804893e-06
3.181219e-06
7.3565259e-06
4.9288171e-06
1.9346387e-06
4.3470872e-06
3.0452958e-06
1.2418976e-06
2.7219171e-06
1.9769387e-06
1.7863588e-06
0.00047379486
0.0012630487
0.00083864595
0.00026678183
0.00069500168
0.00053020962
0.00070255015
0.00039189407
0.00046897588
0.00030595993
0.00032068193
0.00017767244
0.00026225322
0.00016335899
0.00014699106
8.5647499e-05
0.00013954683
8.7936854e-05
0.00018579915
0.00022999303
0.00013906455
7.5078294e-05
0.00011647637
6.8360263e-05
3.3770063e-05
5.7435916e-05
3.4736816e-05
1.6882538e-05
2.9596333e-05
1.8745887e-05
9.2218561e-06
1.6225861e-05
1.0761481e-05
5.4122103e-06
9.4519576e-06
6.53178e-06
3.3665111e-06
5.8105017e-06
4.1599611e-06
2.1960029e-06
3.7411061e-06
2.7604338e-06
2.5056354e-06
0.00022236891
0.0005763148
0.00045409603
0.00040707815
0.00027678456
0.00024036306
0.00015501832
0.00013374875
8.6442769e-05
0.00012436042
6.4676046e-05
3.4167535e-05
1.8924954e-05
1.1057765e-05
6.7945763e-06
4.3655603e-06
2.9156633e-06
7.7794713e-05
0.00036654036
0.00021971601
1.5188721e-05
6.2776098e-05
4.4357168e-05
4.7237914e-06
1.8106612e-05
1.3959815e-05
1.9082016e-06
6.975924e-06
5.6700652e-06
9.1044463e-07
3.2227624e-06
2.7133196e-06
4.8735579e-07
1.6854122e-06
1.4550028e-06
2.8379176e-07
9.6432672e-07
8.4823343e-07
1.7621994e-07
5.9062996e-07
5.2712158e-07
1.1510593e-07
3.8156925e-07
3.445054e-07
0.00041027456
0.0005685514
0.00040171788
0.00010604591
0.0001540329
0.00011543834
3.6755384e-05
5.2977394e-05
4.1928606e-05
1.5637289e-05
2.2168874e-05
1.8266389e-05
7.6767384e-06
1.071004e-05
9.0887916e-06
4.1809885e-06
5.7528548e-06
4.9912387e-06
2.4621683e-06
3.3486804e-06
2.9553831e-06
1.5407234e-06
2.0751322e-06
1.8563334e-06
1.0119631e-06
1.3517955e-06
1.2225636e-06
0.00029907543
0.00032099065
0.00026125986
0.00011672615
0.00013771989
0.00011145247
4.9651012e-05
6.0615038e-05
5.000665e-05
2.3587441e-05
2.9058864e-05
2.4523231e-05
1.2353874e-05
1.5210583e-05
1.3099809e-05
7.00816e-06
8.5929302e-06
7.5274559e-06
4.2406944e-06
5.1722677e-06
4.5949992e-06
2.7043856e-06
3.2806529e-06
2.9485655e-06
1.8007749e-06
2.1732525e-06
1.9722947e-06
0.00016928342
0.00016619358
0.00014640188
8.984314e-05
9.5684962e-05
8.2332583e-05
4.678244e-05
5.2135393e-05
4.4817572e-05
2.5260428e-05
2.8792133e-05
2.4963762e-05
1.4370984e-05
1.6546227e-05
1.4510176e-05
8.6164462e-06
9.9564824e-06
8.8313523e-06
5.4180459e-06
6.262459e-06
5.6130361e-06
3.551712e-06
4.0995713e-06
3.7085438e-06
2.4135731e-06
2.7797781e-06
2.5350293e-06
0.0014351438
0.0005278886
0.0019592419
0.00065153641
0.001009738
0.00036544098
0.00069945226
0.0019909029
0.002639443
0.00089357587
0.0021770459
0.0014412064
0.001023787
0.0016320553
0.00033917308
0.00011853009
0.00048471876
0.0002407821
8.3515502e-05
0.00017377354
0.00051595728
0.00072466651
0.00063453894
0.00037148492
0.00027118402
0.00046567239
9.5194916e-05
3.2531766e-05
0.00012755662
7.2170399e-05
2.458369e-05
5.5526346e-05
0.00015108732
0.00020091776
0.00019699131
0.00011526296
8.9142271e-05
0.00015162141
3.4206942e-05
1.1573372e-05
4.3308149e-05
2.733383e-05
9.2333178e-06
2.207634e-05
5.5356912e-05
6.9829514e-05
7.420951e-05
4.4371716e-05
3.5932313e-05
5.9751323e-05
4.854363e-05
9.1654177e-05
0.00013883033
0.000526882
0.00038858394
0.00032625019
0.00014166906
0.00025910142
0.00021097347
1.0977892e-05
2.3901396e-05
3.218856e-05
9.8281492e-05
9.0947901e-05
7.013197e-05
3.831828e-05
6.7239203e-05
5.1287059e-05
3.692504e-06
8.6785644e-06
1.0931112e-05
2.917345e-05
3.0263012e-05
2.2584443e-05
1.4128446e-05
2.3895408e-05
1.7744809e-05
1.5652738e-06
3.8572245e-06
4.6552749e-06
1.1384084e-05
1.2620337e-05
9.2721645e-06
6.3286169e-06
1.0407155e-05
7.6262359e-06
7.7152538e-07
1.9631987e-06
2.3005178e-06
5.2947532e-06
6.127022e-06
4.4630359e-06
3.2355319e-06
5.2082594e-06
3.7879712e-06
4.2277185e-07
1.1009479e-06
1.2626063e-06
2.7799957e-06
3.3143521e-06
2.4017108e-06
1.8195669e-06
2.8808033e-06
2.0855046e-06
2.5056203e-07
6.6398654e-07
7.4907914e-07
1.5946259e-06
1.9431579e-06
1.4033361e-06
1.0994464e-06
1.7179064e-06
1.2398429e-06
1.5774024e-07
4.2374984e-07
4.7191782e-07
9.7834298e-07
1.212237e-06
8.7344194e-07
7.0257645e-07
1.0861279e-06
7.8221355e-07
6.3280942e-07
7.944675e-07
5.7148195e-07
0.0018808732
0.0020983568
0.0022523314
0.00081072099
0.0015131742
0.0016312651
0.0011875128
0.0016173253
0.0018841329
0.00068938496
0.0013597263
0.0013414889
0.0010857015
0.0011578879
0.00070623709
0.00069473275
0.00091867052
0.00054265326
0.00052132062
0.00041839025
0.00068280722
0.00086482016
0.00063778308
0.00053724424
0.00042291296
0.00051338331
0.00025357851
0.00023121684
0.00032450771
0.00019980225
0.00017992513
0.00015879654
0.00026507332
0.00033397988
0.00026742681
0.00021168064
0.00017019574
0.00021654074
0.0001029361
9.017848e-05
0.00012730709
8.3920243e-05
7.3025614e-05
6.8960433e-05
0.00011240493
0.00013781766
0.00011871931
9.2333343e-05
7.6374656e-05
9.8315357e-05
0.00028322718
0.00020876443
0.00028743378
0.00050822725
0.0003381076
0.00037449244
0.00020736109
0.00025873407
0.00027743646
7.9460149e-05
6.7761197e-05
8.7820721e-05
0.00015665347
0.00011980444
0.00011971719
7.2398368e-05
9.4188975e-05
9.2565951e-05
2.9204144e-05
2.7145572e-05
3.3561298e-05
5.7253054e-05
4.828677e-05
4.5753173e-05
3.0079444e-05
3.931876e-05
3.6926119e-05
1.2938553e-05
1.2703647e-05
1.5175236e-05
2.4715542e-05
2.2244762e-05
2.047318e-05
1.4362871e-05
1.8661611e-05
1.7087615e-05
6.5386769e-06
6.6638276e-06
7.7602734e-06
1.2152397e-05
1.1435818e-05
1.0345632e-05
7.626034e-06
9.8229881e-06
8.8584055e-06
3.638739e-06
3.8090934e-06
4.3507319e-06
6.5984416e-06
6.4103588e-06
5.7365489e-06
4.3932441e-06
5.6096983e-06
5.0096e-06
2.1786442e-06
2.3269358e-06
2.61786e-06
3.8680678e-06
3.8478484e-06
3.4184743e-06
2.6980461e-06
3.4175904e-06
3.0318745e-06
1.3812903e-06
1.4984789e-06
1.6655042e-06
2.4086284e-06
2.440006e-06
2.1567625e-06
1.7439979e-06
2.1933912e-06
1.9367849e-06
1.5744876e-06
1.6180524e-06
1.4249789e-06
0.00093731018
0.0011309187
0.0010304993
0.00039014259
0.00083150887
0.00098471673
0.00072267407
0.00077753473
0.00084385459
0.00032190672
0.00064725715
0.00070061339
0.00061951471
0.00059088748
0.00052244347
0.00058183442
0.00061810355
0.00043799925
0.00047840746
0.00036534734
0.00046430948
0.00053950596
0.00041005445
0.0003961365
0.00033596316
0.00035536068
0.0002527495
0.00026265789
0.00030396667
0.00021035626
0.00021565289
0.00017543304
0.0002394486
0.00028388545
0.00022417752
0.00020190497
0.0001703931
0.00019138116
0.0001231438
0.00012216986
0.00014672828
0.00010374687
0.00010203612
8.7761854e-05
0.00012207107
0.00014404954
0.00011938168
0.00010374367
8.8451007e-05
0.00010233638
0.00023569413
0.00017057974
0.00021135764
0.00027167344
0.0001959377
0.00022662509
0.00015466768
0.00016552358
0.000187619
9.3302242e-05
7.3884827e-05
9.0533441e-05
0.00012729641
9.7446227e-05
0.00010480915
7.1528351e-05
8.1555698e-05
8.6456507e-05
4.0807115e-05
3.4624803e-05
4.1491638e-05
5.9397259e-05
4.8401812e-05
4.9531277e-05
3.4918288e-05
4.0928223e-05
4.1490706e-05
1.9897367e-05
1.7745881e-05
2.0807099e-05
2.9526643e-05
2.5316472e-05
2.5085812e-05
1.8360563e-05
2.1741815e-05
2.141247e-05
1.064846e-05
9.848089e-06
1.1333498e-05
1.5813554e-05
1.4098253e-05
1.3678387e-05
1.0360127e-05
1.229522e-05
1.1880548e-05
6.1469793e-06
5.8410756e-06
6.6189803e-06
9.0688424e-06
8.3297859e-06
7.9676364e-06
6.2142725e-06
7.3646925e-06
7.0247447e-06
3.7725345e-06
3.6600357e-06
4.0948746e-06
5.5150202e-06
5.1838157e-06
4.9095341e-06
3.9247313e-06
4.637568e-06
4.3834143e-06
2.4338477e-06
2.4001223e-06
2.6569589e-06
3.5235432e-06
3.372712e-06
3.1715567e-06
2.5884646e-06
3.0477901e-06
2.8618151e-06
2.346563e-06
2.2791363e-06
2.1319231e-06
0.00045565734
0.00054150503
0.00048136826
0.00018653631
0.00042446097
0.00049979202
0.00038977334
0.00038577556
0.00040501118
0.00015751609
0.00036218882
0.00033562779
0.00031720433
0.00036090124
0.00035348346
0.00028218564
0.0003171366
0.00024929958
0.00027882115
0.0003074394
0.00025074945
0.0002239537
0.00019176925
0.000208023
0.00021907684
0.00016741979
0.00017966156
0.00014592779
0.00017595036
0.00019892555
0.00015514855
0.00013651822
0.00011070785
0.00011547612
0.00012710317
9.6485377e-05
9.9825275e-05
8.4180561e-05
0.0001053755
0.00011997337
9.2557688e-05
8.1342084e-05
0.00014554907
0.00011085705
0.00012782357
0.0001421398
0.00012688532
9.8667414e-05
0.00011227699
7.6214658e-05
6.071157e-05
7.0721287e-05
8.6257927e-05
7.5130518e-05
5.664666e-05
6.5280719e-05
3.992426e-05
3.3293312e-05
3.8588802e-05
4.9133112e-05
4.2628816e-05
3.2189403e-05
3.7018227e-05
2.1827513e-05
1.8922954e-05
2.1703695e-05
2.8038358e-05
2.447107e-05
1.8765722e-05
2.1404373e-05
1.2585619e-05
1.1256201e-05
1.276168e-05
1.6492381e-05
1.4530595e-05
1.1365137e-05
1.2834522e-05
7.6404511e-06
7.004498e-06
7.8546624e-06
1.0089358e-05
8.979162e-06
7.1640877e-06
8.0107797e-06
4.8573184e-06
4.5417958e-06
5.0431611e-06
6.422034e-06
5.7701213e-06
4.6893176e-06
5.1960397e-06
3.2145319e-06
3.0540051e-06
3.3619468e-06
4.2410062e-06
3.843473e-06
3.1755142e-06
3.4901791e-06
2.8946557e-06
2.6434491e-06
)


765
(
0.00097877198
0.00010067995
2.1315969e-05
6.825625e-06
2.7948529e-06
1.3433152e-06
7.2225082e-07
4.217765e-07
2.6241339e-07
0.0024732893
0.00054913616
0.00014999411
5.3247925e-05
2.2928077e-05
1.1332615e-05
6.1979033e-06
3.6599317e-06
2.294568e-06
0.00094595108
0.00041763797
0.0001673855
7.2314371e-05
3.466835e-05
1.8259492e-05
1.0395998e-05
6.3062235e-06
4.0286254e-06
0.00039005781
0.00024282764
0.00013043521
6.8535821e-05
3.7237759e-05
2.1275422e-05
1.2793898e-05
8.0617591e-06
5.2928656e-06
0.001935137
0.0011691773
0.00015112628
0.0044306726
0.0027904745
0.00067038999
8.9577004e-05
2.5141457e-05
0.00043745538
0.00014426553
1.7707246e-05
7.1836887e-06
0.00010476977
4.5106239e-05
5.5311214e-06
2.756258e-06
3.5184444e-05
1.8024971e-05
0.00016385465
0.0029179028
0.00077339002
2.9943775e-05
0.00051419196
0.00017541888
8.825927e-06
0.00012826699
5.5978907e-05
3.4331946e-06
4.3798706e-05
2.2585748e-05
1.5941185e-06
1.8496679e-05
1.0694387e-05
8.3616286e-07
9.04301e-06
5.6751623e-06
4.7932749e-07
4.9126476e-06
3.277614e-06
2.9395435e-07
2.8882488e-06
2.0202335e-06
1.8052852e-06
0.0034478104
0.0021987488
0.0006679515
0.0014378517
0.00093740439
0.00047026612
0.00045663146
0.0001641278
0.00036432168
0.00017040786
0.00012131269
5.410984e-05
0.00013374411
6.7802182e-05
4.2545473e-05
2.2175192e-05
5.4953861e-05
3.064816e-05
0.00079378005
0.0012093625
0.00060447574
0.00020195119
0.00046779641
0.00021826634
6.7568326e-05
0.00017120107
8.6672818e-05
2.789063e-05
7.0224992e-05
3.9134895e-05
1.3372307e-05
3.2672516e-05
1.9752582e-05
7.1498348e-06
1.6896546e-05
1.0901799e-05
4.149408e-06
9.5072967e-06
6.4600943e-06
2.5660722e-06
5.7213373e-06
4.0528382e-06
3.6345074e-06
0.0010910405
0.00071418055
0.00039911727
0.00052202158
0.00034424355
0.00023843833
0.00031942454
0.00016146813
0.00020507431
0.00012516263
0.0001292407
6.850899e-05
0.00010551594
6.3393934e-05
5.6149652e-05
3.2131497e-05
5.3702205e-05
3.3260242e-05
0.00052344111
0.00047896575
0.00032679659
0.00020953206
0.00027955679
0.00016808159
8.833199e-05
0.00014108116
8.3837305e-05
4.1272546e-05
7.0807637e-05
4.3532684e-05
2.1264614e-05
3.7292151e-05
2.3987621e-05
1.1890948e-05
2.0862753e-05
1.4021403e-05
7.1081999e-06
1.2365112e-05
8.6401699e-06
4.486769e-06
7.7120085e-06
5.5725606e-06
5.0255911e-06
0.00042013911
0.00027747829
0.00020147007
0.0001762946
0.00011300364
9.666234e-05
6.0276098e-05
5.159127e-05
3.2783764e-05
0.00027903439
0.0001532109
8.0347529e-05
4.3180197e-05
2.4351463e-05
1.446191e-05
9.0116384e-06
5.8591928e-06
0.00051018836
0.00247724
0.0013518322
6.474454e-05
0.00028555729
0.00018566363
1.5558711e-05
6.2305659e-05
4.5649142e-05
5.3584467e-06
2.0176783e-05
1.5866341e-05
2.2977163e-06
8.3056174e-06
6.834265e-06
1.1398346e-06
4.0035838e-06
3.398891e-06
6.2705718e-07
2.1563458e-06
1.8727509e-06
3.7259716e-07
1.2606814e-06
1.1139316e-06
2.3498678e-07
7.8495782e-07
7.0302606e-07
0.0017060374
0.0019817464
0.0014596159
0.00038629097
0.00054398837
0.00039528139
0.0001132699
0.00016381205
0.00012549743
4.2467311e-05
6.0813522e-05
4.8848913e-05
1.9009935e-05
2.6796548e-05
2.230555e-05
9.6644285e-06
1.3420498e-05
1.1472456e-05
5.3983333e-06
7.4000379e-06
6.4554006e-06
3.2402225e-06
4.3934369e-06
3.8937337e-06
2.0579107e-06
2.7647409e-06
2.4814594e-06
0.00079354051
0.00074609446
0.00064306704
0.0003317427
0.0003678216
0.0002994411
0.00013442854
0.00016036277
0.00013079491
5.9596369e-05
7.294048e-05
6.0670458e-05
2.9293102e-05
3.6069689e-05
3.0651079e-05
1.5755395e-05
1.9369398e-05
1.6774502e-05
9.1249304e-06
1.1168765e-05
9.8274793e-06
5.6127921e-06
6.834008e-06
6.0930913e-06
3.6269e-06
4.3927447e-06
3.9596816e-06
0.00035472634
0.00032097306
0.00029537063
0.00020945487
0.00021098453
0.00018469066
0.00011093277
0.00011983714
0.00010316205
5.8593433e-05
6.5747073e-05
5.6699917e-05
3.2216368e-05
3.6828093e-05
3.2054503e-05
1.8647943e-05
2.1490792e-05
1.8916e-05
1.1351434e-05
1.3116431e-05
1.1672404e-05
7.2305255e-06
8.3532787e-06
7.5082851e-06
4.7919108e-06
5.5271843e-06
5.0121583e-06
0.0013807853
0.00053736083
0.0028023705
0.0045890066
0.00073291628
0.00027315911
0.00041700754
0.00174306
0.0031779433
0.005123239
0.001710138
0.00099396602
0.00059377065
0.0010578839
0.00016003091
5.6156633e-05
0.00025189757
0.00010606891
3.6863221e-05
7.2864335e-05
0.0002415827
0.00037108417
0.00029407434
0.000163035
0.00011353388
0.00020333256
3.7512542e-05
1.2817086e-05
5.1602319e-05
2.7894007e-05
9.4981255e-06
2.1155352e-05
5.9558961e-05
8.1254523e-05
7.7693922e-05
4.4581371e-05
3.3993223e-05
5.8704073e-05
1.2793494e-05
4.3263372e-06
1.6325561e-05
1.016377e-05
3.4316607e-06
8.1742313e-06
2.0723658e-05
2.6348408e-05
2.7820277e-05
1.6514603e-05
1.3316577e-05
2.2269042e-05
0.00028096732
0.00045772833
0.00076813777
0.0030525896
0.0018635686
0.0017948391
0.0006662551
0.0011906976
0.0010760469
4.3297507e-05
8.7106824e-05
0.00012517716
0.00042732683
0.00035062749
0.0002835692
0.00013669486
0.0002451205
0.0001941422
1.1606818e-05
2.6037201e-05
3.4157234e-05
9.8675686e-05
9.5641752e-05
7.2823821e-05
4.1980668e-05
7.2587954e-05
5.481067e-05
4.2633895e-06
1.0192189e-05
1.2641685e-05
3.2660095e-05
3.4720138e-05
2.5767313e-05
1.6637299e-05
2.7852242e-05
2.0587287e-05
1.9060258e-06
4.7482914e-06
5.6735636e-06
1.3585072e-05
1.5285349e-05
1.1197897e-05
7.8020761e-06
1.2736742e-05
9.3101356e-06
9.7337731e-07
2.4955289e-06
2.9038596e-06
6.5860504e-06
7.6966624e-06
5.5970339e-06
4.1165148e-06
6.5905072e-06
4.7862008e-06
5.4701562e-07
1.4323524e-06
1.6341844e-06
3.5595937e-06
4.2734623e-06
3.0934639e-06
2.3686515e-06
3.7345215e-06
2.7009799e-06
3.3037171e-07
8.7915743e-07
9.8789193e-07
2.0857697e-06
2.5548334e-06
1.8437858e-06
1.4563057e-06
2.2680217e-06
1.6358208e-06
1.3007047e-06
1.6181039e-06
1.1653022e-06
0.0012127528
0.001484174
0.001662389
0.0025819567
0.00086752473
0.00099225233
0.00061772296
0.00096481883
0.00124501
0.0019199194
0.00076105243
0.00073003623
0.00054613807
0.00060271675
0.0003195226
0.00031820674
0.00044199229
0.00023402494
0.00022627311
0.00017385729
0.00030520732
0.00040756397
0.00028184519
0.0002301942
0.00017522943
0.00021859264
0.00010014552
9.1249626e-05
0.00013102971
7.7569625e-05
6.9751122e-05
6.0842335e-05
0.00010476443
0.00013476949
0.00010577676
8.2310897e-05
6.5342539e-05
8.4339055e-05
3.8738863e-05
3.3866925e-05
4.8284845e-05
3.1395672e-05
2.7263692e-05
2.5683663e-05
4.2400981e-05
5.2389228e-05
4.4895046e-05
3.4623101e-05
2.8508855e-05
3.6958654e-05
0.0011617218
0.00075554998
0.0010532058
0.0015521276
0.00098062482
0.0012059315
0.00068584691
0.00077563826
0.00091473781
0.00027675284
0.00021673569
0.00029073484
0.00051282466
0.00036155349
0.00038467442
0.00022143011
0.00028018242
0.00029054062
8.6865253e-05
7.6521915e-05
9.7398421e-05
0.00017047334
0.00013533015
0.00013263146
8.2833217e-05
0.00010785421
0.00010428006
3.4242835e-05
3.24484e-05
3.9629834e-05
6.6447283e-05
5.7354192e-05
5.3802906e-05
3.6201266e-05
4.7203286e-05
4.3950484e-05
1.5885933e-05
1.5793267e-05
1.8704757e-05
3.0051272e-05
2.7457968e-05
2.5128611e-05
1.7926336e-05
2.3220205e-05
2.1156355e-05
8.2900101e-06
8.5219191e-06
9.8619877e-06
1.5280796e-05
1.4529572e-05
1.3099151e-05
9.7763301e-06
1.255624e-05
1.1288403e-05
4.7229388e-06
4.9752343e-06
5.6556947e-06
8.5064085e-06
8.3258896e-06
7.434041e-06
5.7475267e-06
7.3201729e-06
6.5238379e-06
2.878732e-06
3.0893517e-06
3.4626898e-06
5.0823492e-06
5.0841554e-06
4.5099105e-06
3.5860857e-06
4.5324078e-06
4.0152387e-06
3.2123806e-06
3.2683463e-06
2.885801e-06
0.00047768768
0.00060105717
0.00055190267
0.00084052816
0.0004042249
0.00049380765
0.00033643767
0.00038296486
0.0004327966
0.00065755154
0.00031002131
0.00033190937
0.00028306293
0.00027397122
0.00022632405
0.00025444088
0.000276884
0.00018439082
0.00020250047
0.00015014186
0.00019946064
0.00023857101
0.00017485507
0.00016594627
0.0001377368
0.00014820621
0.00010012395
0.00010397086
0.00012243122
8.2200406e-05
8.4132563e-05
6.7793463e-05
9.4923055e-05
0.00011427893
8.8929353e-05
7.9022825e-05
6.5987012e-05
7.5017121e-05
4.6814295e-05
4.6320644e-05
5.6189754e-05
3.9209365e-05
3.8458522e-05
3.3013165e-05
4.6530191e-05
5.5300924e-05
4.5624635e-05
3.9315483e-05
3.3363333e-05
3.8887724e-05
0.00064975632
0.00044887338
0.00054174286
0.00059454105
0.00042937543
0.00052369784
0.00038320044
0.00037751416
0.00045163028
0.00026336142
0.00019724955
0.00024305752
0.00032134355
0.00023711016
0.00026736961
0.00018303491
0.00019996656
0.00022144191
0.0001086172
8.8166536e-05
0.00010712714
0.00015128727
0.00011842902
0.00012523304
8.6549593e-05
9.9537945e-05
0.00010393464
4.9437622e-05
4.2667018e-05
5.074068e-05
7.2354282e-05
5.9994432e-05
6.0744215e-05
4.3391821e-05
5.1010728e-05
5.1223912e-05
2.4891169e-05
2.2465441e-05
2.6177625e-05
3.6924535e-05
3.206896e-05
3.1562789e-05
2.3366864e-05
2.7683105e-05
2.7099012e-05
1.3657536e-05
1.2740169e-05
1.4589157e-05
2.0233005e-05
1.8210865e-05
1.7590303e-05
1.3449336e-05
1.5952162e-05
1.5352353e-05
8.0393464e-06
7.6885778e-06
8.6778533e-06
1.1824627e-05
1.0939274e-05
1.0432072e-05
8.199396e-06
9.707621e-06
9.233969e-06
5.0109653e-06
4.8856594e-06
5.4484446e-06
7.3028495e-06
6.9024234e-06
6.5232638e-06
5.2479168e-06
6.1941082e-06
5.8431451e-06
4.7253897e-06
4.5429205e-06
4.265334e-06
0.00020925337
0.00025347118
0.00022642999
0.00034242415
0.00019039817
0.00022760345
0.0001709534
0.00017435393
0.0001868687
0.000282312
0.00016040252
0.00014576413
0.00013362231
0.00015289832
0.0001518103
0.0001168111
0.00013174204
0.00010160077
0.00011686828
0.00013108422
0.00010347423
9.1124921e-05
7.6165624e-05
8.2573017e-05
8.8063577e-05
6.5806077e-05
7.0523726e-05
5.6847476e-05
6.9920273e-05
7.9931481e-05
6.10584e-05
5.3275256e-05
4.252258e-05
4.4244938e-05
4.9137368e-05
3.6857875e-05
3.8034901e-05
3.2010586e-05
4.0569897e-05
4.6479247e-05
3.5446045e-05
3.101099e-05
0.00031692602
0.00023888683
0.00026745661
0.00026672582
0.00024787461
0.00020524276
0.00022699386
0.00017951994
0.00013894774
0.000160585
0.00018359804
0.00016280476
0.00012559697
0.00014337171
9.4359939e-05
7.6349501e-05
8.874136e-05
0.00010961049
9.5418676e-05
7.2061533e-05
8.2944576e-05
5.022641e-05
4.2423977e-05
4.8990655e-05
6.2617842e-05
5.4453668e-05
4.1348454e-05
4.7412651e-05
2.7963315e-05
2.4485332e-05
2.7976217e-05
3.6127963e-05
3.1632844e-05
2.4417739e-05
2.7759431e-05
1.6396722e-05
1.4778461e-05
1.6696557e-05
2.1530408e-05
1.9031276e-05
1.4980195e-05
1.6863868e-05
1.0100214e-05
9.3156122e-06
1.0414424e-05
1.3339527e-05
1.1907239e-05
9.5548061e-06
1.0653972e-05
6.5010749e-06
6.1079543e-06
6.7644259e-06
8.5885209e-06
7.7370824e-06
6.3194708e-06
6.9851101e-06
5.7289324e-06
5.2038697e-06
)


525
(
0.0054863146
0.00097877178
0.00010067989
2.1315982e-05
6.8256245e-06
2.7948513e-06
1.343316e-06
7.2225067e-07
4.2177647e-07
0.0051362097
0.002473289
0.00054913583
0.0001499942
5.3247921e-05
2.2928064e-05
1.1332622e-05
6.197902e-06
3.6599315e-06
0.0012722642
0.00094595104
0.00041763771
0.0001673856
7.2314367e-05
3.4668329e-05
1.8259503e-05
1.0395996e-05
6.3062231e-06
0.00045383987
0.0003900578
0.00024282749
0.00013043529
6.8535818e-05
3.7237737e-05
2.1275435e-05
1.2793895e-05
8.0617586e-06
0.0036386181
0.0062027795
0.0019351382
0.007516793
0.0044306752
0.00016385463
0.0029179025
0.00077338993
2.9943757e-05
0.00051419165
0.00017541878
8.8259323e-06
0.00012826707
5.597894e-05
3.4331944e-06
4.3798702e-05
2.2585747e-05
1.5941176e-06
1.8496668e-05
1.069438e-05
8.3616336e-07
9.0430154e-06
5.6751657e-06
4.7932739e-07
4.9126465e-06
3.2776133e-06
2.8882486e-06
0.0044568649
0.0016281491
0.0034478125
0.0017377885
0.0014378526
0.00079377996
0.0012093624
0.00060447569
0.00020195107
0.00046779613
0.00021826621
6.7568367e-05
0.00017120117
8.667287e-05
2.7890628e-05
7.0224988e-05
3.9134893e-05
1.3372299e-05
3.2672496e-05
1.975257e-05
7.1498391e-06
1.6896556e-05
1.0901806e-05
4.1494072e-06
9.5072947e-06
6.460093e-06
5.7213369e-06
0.0012071387
0.00055403376
0.0010910412
0.00057115589
0.0005220219
0.00052344107
0.00047896574
0.00032679657
0.00020953194
0.00027955662
0.00016808149
8.8332043e-05
0.00014108125
8.3837356e-05
4.1272544e-05
7.0807633e-05
4.3532682e-05
2.1264601e-05
3.7292128e-05
2.3987607e-05
1.1890955e-05
2.0862766e-05
1.4021412e-05
7.1081984e-06
1.2365109e-05
8.6401682e-06
7.7120079e-06
0.00044216908
0.00042013936
0.00027903437
0.00015321081
8.0347577e-05
4.3180195e-05
2.4351448e-05
1.4461919e-05
9.0116365e-06
0.0054863146
0.011240638
0.011240638
0.00051018805
0.0024772395
0.0013518314
6.4744579e-05
0.00028555712
0.00018566374
1.555871e-05
6.2305697e-05
4.5649138e-05
5.3584435e-06
2.0176782e-05
1.5866332e-05
2.2977177e-06
8.3056124e-06
6.8342691e-06
1.1398346e-06
4.0035863e-06
3.3988908e-06
6.2705703e-07
2.1563454e-06
1.8727504e-06
3.7259718e-07
1.2606814e-06
1.1139316e-06
0.0051362097
0.0035026859
0.0035026859
0.0017060364
0.0019817463
0.001459615
0.0003862912
0.00054398804
0.00039528163
0.00011326989
0.00016381215
0.00012549742
4.2467286e-05
6.0813518e-05
4.8848884e-05
1.9009946e-05
2.6796532e-05
2.2305564e-05
9.6644281e-06
1.3420506e-05
1.1472456e-05
5.398332e-06
7.4000364e-06
6.455399e-06
3.2402226e-06
4.3934366e-06
3.8937339e-06
0.0012722642
0.00095409593
0.00095409593
0.00079354003
0.00074609443
0.00064306665
0.0003317429
0.00036782138
0.00029944128
0.00013442853
0.00016036287
0.00013079491
5.9596333e-05
7.2940476e-05
6.0670422e-05
2.9293119e-05
3.6069668e-05
3.0651098e-05
1.5755394e-05
1.936941e-05
1.6774501e-05
9.1249282e-06
1.1168763e-05
9.827477e-06
5.6127923e-06
6.8340075e-06
6.0930916e-06
0.00045383987
0.00036610022
0.00036610022
0.00035472613
0.00032097306
0.00029537045
0.000209455
0.0002109844
0.00018469077
0.00011093276
0.00011983722
0.00010316205
5.8593398e-05
6.574707e-05
5.6699883e-05
3.2216388e-05
3.6828071e-05
3.2054522e-05
1.8647942e-05
2.1490805e-05
1.8916e-05
1.1351431e-05
1.3116428e-05
1.1672401e-05
7.2305258e-06
8.3532781e-06
7.5082854e-06
0.0079596711
0.007945391
0.0036386181
0.0045890094
0.0079596711
0.010322523
0.007516793
0.010322523
0.0051232421
0.0062027795
0.007945391
0.00028096749
0.00045772827
0.00076813823
0.0030525891
0.0018635674
0.001794838
0.00066625501
0.0011906983
0.0010760476
4.3297502e-05
8.7106772e-05
0.00012517715
0.00042732658
0.0003506277
0.00028356937
0.00013669477
0.00024512048
0.00019414218
1.1606811e-05
2.6037216e-05
3.4157213e-05
9.8675745e-05
9.5641744e-05
7.2823815e-05
4.1980693e-05
7.2587911e-05
5.4810637e-05
4.263392e-06
1.0192189e-05
1.2641693e-05
3.2660093e-05
3.4720117e-05
2.5767297e-05
1.6637298e-05
2.7852259e-05
2.0587299e-05
1.9060257e-06
4.7482885e-06
5.6735633e-06
1.3585063e-05
1.5285358e-05
1.1197904e-05
7.8020714e-06
1.2736741e-05
9.3101351e-06
9.7337672e-07
2.4955304e-06
2.9038579e-06
6.5860544e-06
7.696662e-06
5.5970336e-06
4.1165173e-06
6.5905032e-06
4.786198e-06
5.4701584e-07
1.4323521e-06
1.634185e-06
3.559593e-06
4.2734613e-06
3.0934631e-06
2.368651e-06
3.734523e-06
2.700981e-06
2.0857696e-06
2.5548335e-06
1.8437858e-06
0.0031475278
0.0022428683
0.0044568649
0.0025819582
0.0031475278
0.0024357938
0.0017377885
0.0024357938
0.0019199205
0.0016281491
0.0022428683
0.0011617225
0.0007555499
0.0010532065
0.0015521275
0.00098062423
0.0012059308
0.00068584685
0.00077563872
0.00091473836
0.00027675282
0.00021673556
0.00029073481
0.00051282435
0.00036155371
0.00038467465
0.00022142998
0.0002801824
0.0002905406
8.6865201e-05
7.6521961e-05
9.7398363e-05
0.00017047344
0.00013533014
0.00013263145
8.2833266e-05
0.00010785415
0.00010428
3.4242856e-05
3.2448398e-05
3.9629858e-05
6.6447279e-05
5.7354158e-05
5.3802874e-05
3.6201264e-05
4.7203314e-05
4.3950511e-05
1.5885932e-05
1.5793258e-05
1.8704756e-05
3.0051254e-05
2.7457984e-05
2.5128626e-05
1.7926325e-05
2.3220204e-05
2.1156354e-05
8.2900052e-06
8.5219242e-06
9.8619818e-06
1.5280805e-05
1.4529572e-05
1.309915e-05
9.7763359e-06
1.2556232e-05
1.1288397e-05
4.7229407e-06
4.9752332e-06
5.655697e-06
8.5064067e-06
8.3258876e-06
7.4340392e-06
5.7475255e-06
7.3201758e-06
6.5238406e-06
5.0823489e-06
5.0841556e-06
4.5099107e-06
0.00091380825
0.00070529281
0.0012071387
0.00084052866
0.00091380825
0.00073113766
0.00057115589
0.00073113766
0.00065755193
0.00055403376
0.00070529281
0.00064975671
0.00044887335
0.00054174319
0.00059454103
0.00042937518
0.00052369753
0.00038320042
0.00037751438
0.00045163055
0.0002633614
0.00019724943
0.00024305751
0.00032134336
0.0002371103
0.00026736977
0.0001830348
0.00019996655
0.0002214419
0.00010861713
8.8166589e-05
0.00010712708
0.00015128737
0.00011842902
0.00012523304
8.6549645e-05
9.9537885e-05
0.00010393458
4.9437652e-05
4.2667016e-05
5.074071e-05
7.2354278e-05
5.9994396e-05
6.0744178e-05
4.3391819e-05
5.1010759e-05
5.1223943e-05
2.4891168e-05
2.2465427e-05
2.6177624e-05
3.6924513e-05
3.2068979e-05
3.1562808e-05
2.336685e-05
2.7683104e-05
2.7099011e-05
1.3657528e-05
1.2740177e-05
1.4589148e-05
2.0233017e-05
1.8210864e-05
1.7590302e-05
1.3449345e-05
1.5952152e-05
1.5352344e-05
8.0393497e-06
7.6885762e-06
8.6778569e-06
1.1824625e-05
1.0939271e-05
1.0432069e-05
8.1993943e-06
9.707625e-06
9.2339728e-06
7.302849e-06
6.9024238e-06
6.5232641e-06
0.00035794231
0.00029347443
0.00044216908
0.00034242435
0.00035794231
0.00029930573
0.00029930573
0.00028231217
0.00029347443
0.00031692621
0.00023888682
0.00026745677
0.00026672582
0.00024787446
0.00020524275
0.000226994
0.00017951993
0.00013894766
0.00016058499
0.00018359793
0.00016280486
0.0001255969
0.0001433717
9.4359882e-05
7.6349547e-05
8.8741307e-05
0.00010961055
9.5418672e-05
7.2061576e-05
8.2944526e-05
5.022644e-05
4.2423975e-05
4.8990684e-05
6.2617839e-05
5.4453636e-05
4.1348453e-05
4.741268e-05
2.7963314e-05
2.4485317e-05
2.7976216e-05
3.6127942e-05
3.1632863e-05
2.4417724e-05
2.775943e-05
1.6396713e-05
1.477847e-05
1.6696547e-05
2.1530421e-05
1.9031275e-05
1.4980204e-05
1.6863858e-05
1.0100218e-05
9.3156103e-06
1.0414428e-05
1.3339524e-05
1.1907236e-05
9.5548042e-06
1.0653976e-05
8.5885203e-06
7.7370828e-06
)


525
(
0.00051018836
0.005486315
0.00097877119
0.00010067995
2.131598e-05
6.8256204e-06
2.7948529e-06
1.3433158e-06
7.2225062e-07
0.0017060374
0.0051362099
0.0024732875
0.00054913616
0.00014999419
5.3247889e-05
2.2928077e-05
1.1332619e-05
6.1979015e-06
0.00079354051
0.0012722642
0.00094595047
0.00041763797
0.00016738559
7.2314323e-05
3.466835e-05
1.8259499e-05
1.0395995e-05
0.00035472634
0.00045383987
0.00039005756
0.00024282764
0.00013043528
6.8535777e-05
3.7237759e-05
2.1275431e-05
1.2793894e-05
0.00028096732
0.0011906976
0.0036386203
0.0018635686
0.0062027832
0.0019351378
0.0075167932
0.0044306747
0.00016385453
0.0029179007
0.00077338946
2.9943775e-05
0.00051419196
0.00017541888
8.8259316e-06
0.00012826705
5.5978936e-05
3.4331923e-06
4.3798676e-05
2.2585733e-05
1.5941185e-06