/*--------------------------------*- C++ -*----------------------------------*\
| =========                 |                                                 |
| \\      /  F ield         | OpenFOAM: The Open Source CFD Toolbox           |
|  \\    /   O peration     | Version:  v2006                                 |
|   \\  /    A nd           | Website:  www.openfoam.com                      |
|    \\/     M anipulation  |                                                 |
\*---------------------------------------------------------------------------*/
FoamFile
{
    version     2.0;
    format      ascii;
    class       scalarListList;
    location    "constant/airOutside";
    object      F;
}
// * * * * * * * * * * * * * * * * * * * * * * * * * * * * * * * * * * * * * //


2358
(

750
(
0.00016499106
3.0388657e-05
8.9811078e-06
3.4977522e-06
1.6251239e-06
8.527449e-07
4.8894971e-07
2.9990368e-07
1.9394672e-07
0.00080220134
0.00020511314
6.877337e-05
2.8417906e-05
1.3633035e-05
7.291805e-06
4.2327656e-06
2.6180299e-06
1.7031544e-06
0.00053117427
0.00021309269
8.9951784e-05
4.2061941e-05
2.1681564e-05
1.2127776e-05
7.2512488e-06
4.5777164e-06
3.0221385e-06
0.00028382779
0.00015598759
8.1863667e-05
4.4017604e-05
2.4832445e-05
1.4751143e-05
9.1934497e-06
5.9781497e-06
4.0333971e-06
0.00028172364
0.00024391527
0.0011986465
0.0011783542
0.0001659627
5.739156e-05
0.00085149574
0.00033272752
4.180779e-05
1.7920739e-05
0.00024889614
0.00011265883
1.3928874e-05
7.0472085e-06
8.8659088e-05
4.6083452e-05
4.3888672e-05
0.00078066009
0.00024864364
1.180537e-05
0.00017811406
7.3844467e-05
4.3425701e-06
5.6971886e-05
2.8371655e-05
1.9428515e-06
2.3011849e-05
1.2983266e-05
9.9260351e-07
1.0902702e-05
6.7208008e-06
5.5796831e-07
5.7877942e-06
3.809334e-06
3.3704635e-07
3.3434391e-06
2.3138573e-06
2.1533816e-07
2.0611319e-06
1.4840803e-06
1.3377107e-06
0.0011715777
0.0012233737
0.0007857145
0.00096144141
0.00091153146
0.00038076387
0.00078196749
0.00040320776
0.00028923355
0.00013524533
0.00032289272
0.00016993664
0.00010724875
5.6691885e-05
0.00013873188
7.8341177e-05
0.0002808426
0.00061288122
0.00028469588
8.8379667e-05
0.00022190307
0.00010978462
3.4883078e-05
8.8250413e-05
4.809497e-05
1.6193765e-05
3.988096e-05
2.3672302e-05
8.4539987e-06
2.0139255e-05
1.2805237e-05
4.817583e-06
1.1118733e-05
7.4670709e-06
2.9369213e-06
6.5900323e-06
4.6241026e-06
1.8885269e-06
4.1349628e-06
3.00676e-06
2.7178116e-06
0.00065890842
0.00083954023
0.00038370682
0.00053405804
0.00069950543
0.00038449571
0.00047040966
0.00030303872
0.00031333337
0.00017188067
0.00025873205
0.00015951643
0.00014182823
8.2127813e-05
0.00013586869
8.4996577e-05
0.00026771467
0.00033225773
0.00020348731
0.00011057951
0.00017108597
0.0001013849
5.0375225e-05
8.5408614e-05
5.1990225e-05
2.5376731e-05
4.4373995e-05
2.8226554e-05
1.3928651e-05
2.4460516e-05
1.6269937e-05
8.2007725e-06
1.4301516e-05
9.9029496e-06
5.1123789e-06
8.8143682e-06
6.3196294e-06
3.340164e-06
5.6856485e-06
4.199689e-06
3.8132047e-06
0.00032229442
0.00045807839
0.0004090834
0.00027486435
0.0002377932
0.00015180942
0.00013059562
8.3773585e-05
0.0001827334
9.6125003e-05
5.1194795e-05
2.8513474e-05
1.6723766e-05
1.0303598e-05
6.6328808e-06
4.4362605e-06
0.00028847422
0.00010167821
0.00046112354
6.3293372e-05
2.16525e-05
8.8408912e-05
2.0539856e-05
6.948306e-06
2.6495702e-05
8.4635129e-06
2.8479609e-06
1.0383951e-05
4.0819236e-06
1.3695949e-06
4.8406684e-06
2.1992659e-06
7.3662494e-07
2.5450244e-06
1.28605e-06
4.3026331e-07
1.4611081e-06
8.0087093e-07
2.6773296e-07
8.9695147e-07
5.2419999e-07
1.7514408e-07
5.8040438e-07
0.00055114883
0.00055590076
0.00076446747
0.00016653353
0.00015244951
0.00022019949
6.1923922e-05
5.4215466e-05
7.7895205e-05
2.7308992e-05
2.3365656e-05
3.3063363e-05
1.3683846e-05
1.1554775e-05
1.6101557e-05
7.5475526e-06
6.3213887e-06
8.6912378e-06
4.4819238e-06
3.7336224e-06
5.0752171e-06
2.8208201e-06
2.3411013e-06
3.1519184e-06
1.8604451e-06
1.5399066e-06
2.0564468e-06
0.0003737156
0.00042407714
0.00045584102
0.00016319383
0.00017029802
0.00020066358
7.4303559e-05
7.3657594e-05
8.9795374e-05
3.676669e-05
3.5336366e-05
4.3485867e-05
1.9751494e-05
1.8619159e-05
2.29067e-05
1.1392061e-05
1.060367e-05
1.2994154e-05
6.9718913e-06
6.4333938e-06
7.843395e-06
4.4819447e-06
4.1104051e-06
4.984728e-06
3.0019797e-06
2.7407464e-06
3.3068659e-06
0.00021473455
0.0002470585
0.00024308608
0.00012205729
0.00013282641
0.00014149737
6.700441e-05
6.9839347e-05
7.7799479e-05
3.7548212e-05
3.7963746e-05
4.3249539e-05
2.1917502e-05
2.1697149e-05
2.4969887e-05
1.3379669e-05
1.3050405e-05
1.5074361e-05
8.5222132e-06
8.2246952e-06
9.5036889e-06
5.6395924e-06
5.4004637e-06
6.2320184e-06
3.8596375e-06
3.6744236e-06
4.2311339e-06
0.0014294037
0.00052512831
0.00077082976
0.00099625094
0.00036004889
0.0006844731
0.0019872017
0.0010813514
0.002178655
0.0014255455
0.0010045015
0.0016194167
0.00032785361
0.00011442695
0.00047112688
0.00023171967
8.0278494e-05
0.00016664005
0.00049993808
0.00070615524
0.00061682904
0.00035829135
0.0002605706
0.00045048822
9.0813572e-05
3.1008611e-05
0.00012196997
6.8717248e-05
2.3389988e-05
5.2786073e-05
0.00014436565
0.00019246284
0.00018865619
0.00010990659
8.4853135e-05
0.00014487322
3.2440042e-05
1.0969641e-05
4.1116648e-05
2.5897645e-05
8.743903e-06
2.0899677e-05
5.2553087e-05
6.6373585e-05
7.0558701e-05
4.2080634e-05
3.4046794e-05
5.6745091e-05
0.00018793955
6.5525612e-05
0.00012690265
0.00043192809
0.00067177688
0.00052010336
0.00028714852
0.00019686646
0.00035522562
4.6405451e-05
1.5815746e-05
3.474276e-05
0.0001002523
0.00013876195
0.00013033901
7.4037061e-05
5.5754029e-05
9.7247653e-05
1.615694e-05
5.4565006e-06
1.2876636e-05
3.3249142e-05
4.2722144e-05
4.4591246e-05
2.6240086e-05
2.0970441e-05
3.5358808e-05
6.9653448e-06
2.3417698e-06
5.7832142e-06
1.3843564e-05
1.6950669e-05
1.884909e-05
1.1412827e-05
9.4901772e-06
1.5579048e-05
3.4657365e-06
1.1622476e-06
2.9612256e-06
6.7149766e-06
7.95394e-06
9.2201426e-06
5.7071491e-06
4.8807812e-06
7.8481648e-06
1.9101447e-06
6.395766e-07
1.6669078e-06
3.63046e-06
4.1981817e-06
5.0104835e-06
3.1552439e-06
2.7550743e-06
4.3588328e-06
1.136394e-06
3.8011015e-07
1.0078517e-06
2.1277469e-06
2.4162113e-06
2.9463874e-06
1.8809699e-06
1.668875e-06
2.6063661e-06
7.1729934e-07
2.3975745e-07
6.4433488e-07
1.3270754e-06
1.4857838e-06
1.8418903e-06
1.1889626e-06
1.0683255e-06
1.6509615e-06
8.6958077e-07
9.625812e-07
1.2089077e-06
0.0018919263
0.0021054921
0.0010639316
0.00151132
0.0016240445
0.0011777691
0.0016303524
0.00092543451
0.0013732018
0.0013437512
0.0010805188
0.0011627991
0.00069181284
0.00067786981
0.00090519776
0.00052884783
0.00050611601
0.00040594169
0.00067147794
0.00085535996
0.00062953444
0.00052561661
0.00041188223
0.00050417757
0.00024430427
0.00022205464
0.00031365736
0.00019196064
0.00017235754
0.00015220175
0.00025624797
0.00032397809
0.00025942759
0.00020402062
0.00016361135
0.00020939744
9.828664e-05
8.5908811e-05
0.00012177104
8.0007705e-05
6.9474845e-05
6.5658406e-05
0.00010760173
0.00013218753
0.00011395798
8.8236749e-05
7.2876977e-05
9.419395e-05
0.00040092972
0.00039157723
0.00029515903
0.00051999318
0.00069470275
0.00047468941
0.00039040317
0.00029509262
0.00036714643
0.00012764825
0.00011519017
9.9110408e-05
0.00017334969
0.00022504413
0.00017413505
0.00013493111
0.00010612933
0.00013770472
4.9753876e-05
4.3251036e-05
4.0373073e-05
6.7667119e-05
8.4330022e-05
7.1521634e-05
5.4803936e-05
4.477761e-05
5.8426248e-05
2.2735449e-05
1.9375706e-05
1.9067714e-05
3.0627285e-05
3.6889285e-05
3.3300365e-05
2.5613846e-05
2.156754e-05
2.7989305e-05
1.1698626e-05
9.8547953e-06
1.0057211e-05
1.558099e-05
1.8276733e-05
1.7228905e-05
1.3357639e-05
1.1512049e-05
1.48166e-05
6.5844674e-06
5.5062158e-06
5.7690763e-06
8.6760831e-06
9.9707113e-06
9.6970689e-06
7.5827548e-06
6.6546853e-06
8.4925463e-06
3.9723122e-06
3.3055946e-06
3.5327001e-06
5.1847488e-06
5.8630776e-06
5.8366594e-06
4.6009533e-06
4.096444e-06
5.1868286e-06
2.5318644e-06
2.0997051e-06
2.2788055e-06
3.2775545e-06
3.6587311e-06
3.708265e-06
2.9444312e-06
2.6523166e-06
3.3347643e-06
2.1685649e-06
2.3953351e-06
2.4625098e-06
0.0009492687
0.0011438849
0.00054986963
0.00083841255
0.00099105546
0.00072516414
0.00078828967
0.00045875038
0.00065678833
0.00070753524
0.00062292004
0.00059751236
0.00051907148
0.00057628394
0.00061714999
0.00043311764
0.00047151275
0.00035967414
0.00046259772
0.00053999803
0.00040955186
0.0003929042
0.00033179323
0.00035342068
0.00024687923
0.00025568971
0.0002980213
0.0002047744
0.00020923812
0.00017025637
0.00023464613
0.00027923351
0.00022035348
0.00019717746
0.00016588309
0.0001874723
0.00011888915
0.00011760573
0.00014200805
9.9941651e-05
9.8022103e-05
8.4376029e-05
0.00011819759
0.00013983845
0.00011592626
0.00010021804
8.5265523e-05
9.9133456e-05
0.00030437966
0.00033705221
0.00024717038
0.00032666369
0.00038939437
0.0002843148
0.00027189634
0.00022526857
0.00024121703
0.00013314418
0.00013681542
0.00010908047
0.00015399464
0.00018625681
0.00014363785
0.00012750727
0.00010584677
0.00012060206
6.1815678e-05
6.0715748e-05
5.1706944e-05
7.3714567e-05
8.8160294e-05
7.2146713e-05
6.1896554e-05
5.2203436e-05
6.1138172e-05
3.1246986e-05
2.9861242e-05
2.6689322e-05
3.7640148e-05
4.422748e-05
3.8017039e-05
3.2177946e-05
2.7629841e-05
3.2695568e-05
1.7106696e-05
1.6067009e-05
1.4879086e-05
2.063276e-05
2.3826661e-05
2.1275617e-05
1.7939123e-05
1.5657806e-05
1.8572497e-05
1.0024471e-05
9.307705e-06
8.8522132e-06
1.2061247e-05
1.3717733e-05
1.261278e-05
1.0641347e-05
9.4196312e-06
1.1158905e-05
6.2162458e-06
5.7261876e-06
5.5587564e-06
7.4502725e-06
8.3646003e-06
7.8677812e-06
6.655177e-06
5.9614994e-06
7.0420761e-06
4.0401932e-06
3.7006238e-06
3.650905e-06
4.8213779e-06
5.3543723e-06
5.1277155e-06
4.3520877e-06
3.9377165e-06
4.6353512e-06
3.2451615e-06
3.5708398e-06
3.4694935e-06
0.00046299279
0.00054988312
0.0002721076
0.00043010426
0.0005059588
0.00039369773
0.00039219025
0.00023102786
0.00036729945
0.00033938235
0.00031811522
0.00036124456
0.0003557996
0.00028194128
0.00031617436
0.00024815955
0.00028009366
0.00030988932
0.00025101719
0.00022340749
0.000189536
0.00020505834
0.00021728433
0.00016491994
0.00017650099
0.00014329788
0.00017432461
0.00019775365
0.00015321694
0.00013440233
0.00010809615
0.00011244805
0.00012444563
9.3969608e-05
9.6965009e-05
8.1792732e-05
0.00010315551
0.00011776908
9.0375026e-05
7.9233758e-05
0.00018800964
0.00021315504
0.00016350178
0.0001869173
0.00020892101
0.00016577421
0.00014600957
0.00010509042
0.00011298798
9.0413927e-05
0.00011166066
0.00012792735
9.7216991e-05
8.4518932e-05
5.7791145e-05
5.9715859e-05
4.9938988e-05
6.3821573e-05
7.3438374e-05
5.5506365e-05
4.8333988e-05
3.268403e-05
3.2847466e-05
2.8527845e-05
3.6836439e-05
4.2155777e-05
3.2255655e-05
2.8307986e-05
1.929273e-05
1.9018789e-05
1.703001e-05
2.1958625e-05
2.4901885e-05
1.9410862e-05
1.7201102e-05
1.1907166e-05
1.1579538e-05
1.06243e-05
1.3607516e-05
1.5280481e-05
1.2146943e-05
1.0868851e-05
7.6603643e-06
7.3768959e-06
6.9016409e-06
8.7623261e-06
9.7478523e-06
7.8938876e-06
7.1268763e-06
5.1142108e-06
4.8894423e-06
4.6472001e-06
5.8454936e-06
6.4478923e-06
5.3098669e-06
4.8325845e-06
4.0250463e-06
4.406395e-06
)


750
(
0.00074147786
0.00011138684
2.6304173e-05
8.7839287e-06
3.6693952e-06
1.7831429e-06
9.6513165e-07
5.6605632e-07
3.5322514e-07
0.0024161679
0.00063492103
0.00018716182
6.878707e-05
3.0151287e-05
1.5055065e-05
8.285727e-06
4.9131552e-06
3.0891251e-06
0.0011014821
0.00051176316
0.00021303472
9.4154533e-05
4.5754524e-05
2.4302011e-05
1.3912344e-05
8.4708247e-06
5.4257755e-06
0.00048805773
0.00030918982
0.00016903033
9.0012366e-05
4.9364926e-05
2.8385505e-05
1.7145954e-05
1.0838596e-05
7.1325801e-06
0.0012046831
0.0001431928
0.0037170324
0.00064478338
8.4719541e-05
2.3709897e-05
0.00041888868
0.00013705661
1.669031e-05
6.7644588e-06
9.9378326e-05
4.2652285e-05
5.2072307e-06
2.5937019e-06
3.3247256e-05
1.7007251e-05
0.00017182649
0.0026589713
0.00084768158
3.630483e-05
0.00058556468
0.0002147345
1.127251e-05
0.00015939179
7.1712428e-05
4.4900844e-06
5.6497619e-05
2.9574362e-05
2.1113621e-06
2.4308525e-05
1.4172471e-05
1.1157964e-06
1.2009653e-05
7.5753639e-06
6.4269834e-07
6.5664036e-06
4.3954997e-06
3.9542527e-07
3.8768455e-06
2.7178949e-06
2.4302617e-06
0.0031896127
0.00064697444
0.0015983816
0.00046387786
0.00043998867
0.00015658159
0.00035728188
0.00016487715
0.0001154944
5.1297229e-05
0.00012897521
6.4903047e-05
4.0295184e-05
2.0958417e-05
5.2508552e-05
2.9163127e-05
0.00088937228
0.0013660993
0.00071987603
0.00024859147
0.00056586496
0.00027387771
8.6720039e-05
0.00021679228
0.00011203411
3.6548688e-05
9.1237413e-05
5.1442813e-05
1.7727823e-05
4.3076318e-05
2.6226432e-05
9.5456702e-06
2.2475961e-05
1.4567054e-05
5.5652675e-06
1.2719171e-05
8.6686644e-06
3.452475e-06
7.6837596e-06
5.4544891e-06
4.8943992e-06
0.0012564365
0.00039550413
0.0006422212
0.00023863525
0.00031475676
0.00015693771
0.00020429813
0.00012309721
0.00012517002
6.5811787e-05
0.00010338743
6.153377e-05
5.3827823e-05
3.0655418e-05
5.1992507e-05
3.1998449e-05
0.00063363698
0.00059170581
0.00041044728
0.00026459515
0.00035320239
0.00021589034
0.00011448038
0.00018208126
0.00010951453
5.4319064e-05
9.2799856e-05
5.7517899e-05
2.8251707e-05
4.9380928e-05
3.1936123e-05
1.5894305e-05
2.7817002e-05
1.8764501e-05
9.5403281e-06
1.6564924e-05
1.1604928e-05
6.0392841e-06
1.0365866e-05
7.5042756e-06
6.771332e-06
0.00052406099
0.00020210718
0.00017609994
0.00011150329
9.5028214e-05
5.8696336e-05
5.010549e-05
3.1628182e-05
0.0003536202
0.00019774074
0.00010521703
5.7127514e-05
3.2444474e-05
1.9362463e-05
1.2107139e-05
7.8916534e-06
0.0012142769
0.00044745355
0.0019568144
0.00021442811
7.4506921e-05
0.00031765295
5.7176874e-05
1.9469997e-05
7.6981114e-05
2.0554315e-05
6.9394643e-06
2.5976157e-05
9.0040213e-06
3.0267795e-06
1.0906381e-05
4.5209415e-06
1.5160146e-06
5.3148691e-06
2.5057533e-06
8.389746e-07
2.8816157e-06
1.4962773e-06
5.0047597e-07
1.6919746e-06
9.4689513e-07
3.1649556e-07
1.0566202e-06
0.0015687911
0.0017564297
0.0020536994
0.00047415063
0.0004581395
0.00063891145
0.00015891991
0.00014292575
0.0002053585
6.3541437e-05
5.5164209e-05
7.8695748e-05
2.9440926e-05
2.5075297e-05
3.5265113e-05
1.527395e-05
1.2862663e-05
1.7835498e-05
8.6418495e-06
7.2254408e-06
9.8948718e-06
5.2318464e-06
4.3532743e-06
5.8985536e-06
3.3429006e-06
2.7721233e-06
3.7223974e-06
0.00077417072
0.00093579105
0.00089001018
0.0003745184
0.00041107155
0.00045594459
0.00016828093
0.0001722689
0.00020509975
7.945925e-05
7.7910441e-05
9.5178567e-05
4.0589862e-05
3.8756143e-05
4.7655252e-05
2.2372165e-05
2.1002535e-05
2.5794036e-05
1.3169373e-05
1.2224368e-05
1.4951429e-05
8.1921073e-06
7.5449939e-06
9.1816209e-06
5.3364201e-06
4.8873643e-06
5.9169387e-06
0.00037458539
0.00044555035
0.00040585652
0.00023766506
0.00026794762
0.00027046972
0.0001346274
0.00014430111
0.00015588303
7.4797492e-05
7.716012e-05
8.6525825e-05
4.2613329e-05
4.2786542e-05
4.8876991e-05
2.5284133e-05
2.4911514e-05
2.8691603e-05
1.5662531e-05
1.5226465e-05
1.7585182e-05
1.0103334e-05
9.727373e-06
1.1233357e-05
6.7585864e-06
6.460623e-06
7.4495822e-06
0.0013240996
0.00051275537
0.0030735453
0.00069902061
0.00025952955
0.00039630301
0.0016849305
0.0038358871
0.0016676869
0.00095423298
0.00056730393
0.0010235099
0.00015145289
5.3043886e-05
0.00023880718
0.00010025706
3.4787951e-05
6.8806903e-05
0.00022945574
0.00035333416
0.00028065348
0.00015456439
0.00010748348
0.00019355685
3.5378003e-05
1.2076104e-05
4.8693607e-05
2.6294921e-05
8.9461447e-06
1.9935305e-05
5.6274661e-05
7.6840218e-05
7.3603307e-05
4.20938e-05
3.2078365e-05
5.5556703e-05
1.2049094e-05
4.0722822e-06
1.5379457e-05
9.5703933e-06
3.2296696e-06
7.6956582e-06
1.9539649e-05
2.4852647e-05
2.627331e-05
1.5566008e-05
1.254822e-05
2.1020453e-05
0.00075842933
0.00027354605
0.00048413545
0.0016792422
0.0025807135
0.0018293213
0.0010891587
0.0007157538
0.0012428835
0.00014873709
5.1320789e-05
0.00010579283
0.00032971922
0.0004801774
0.00041143504
0.00023175677
0.00016656511
0.00029449181
4.3257098e-05
1.4688948e-05
3.3272225e-05
9.1374942e-05
0.00012220851
0.00012030701
6.9505257e-05
5.3700755e-05
9.2224216e-05
1.6463084e-05
5.5507302e-06
1.3332553e-05
3.3401688e-05
4.2080999e-05
4.504821e-05
2.6824015e-05
2.1772352e-05
3.6316443e-05
7.4963301e-06
2.518091e-06
6.2895772e-06
1.4757075e-05
1.784494e-05
2.0151815e-05
1.2304045e-05
1.0336592e-05
1.6838216e-05
3.8691919e-06
1.296881e-06
3.3302653e-06
7.4457641e-06
8.7445786e-06
1.024099e-05
6.378031e-06
5.494015e-06
8.7839544e-06
2.1890068e-06
7.3270856e-07
1.9206022e-06
4.1393902e-06
4.7572511e-06
5.7190014e-06
3.6182307e-06
3.1762453e-06
5.0032556e-06
1.3279951e-06
4.4410034e-07
1.1826575e-06
2.476759e-06
2.7994784e-06
3.4321415e-06
2.199076e-06
1.9591175e-06
3.0491426e-06
1.5695729e-06
1.7509157e-06
2.1795553e-06
0.0012004055
0.001459084
0.0025817967
0.00085180835
0.00096746786
0.00060238075
0.00096026665
0.0020384787
0.00076077666
0.00072114287
0.00053584391
0.00059837769
0.00030837057
0.00030535241
0.00042856426
0.00022499627
0.00021642878
0.00016662852
0.00029620855
0.00039753551
0.00027497982
0.00022246426
0.00016874446
0.0002123157
9.5532408e-05
8.6726402e-05
0.00012525963
7.3865724e-05
6.6201604e-05
5.7851294e-05
0.00010033374
0.0001293949
0.00010171541
7.8662293e-05
6.2333329e-05
8.0902889e-05
3.674914e-05
3.2049632e-05
4.5853659e-05
2.9755942e-05
2.5782925e-05
2.4323139e-05
4.0332412e-05
4.9899471e-05
4.282974e-05
3.2896317e-05
2.7060149e-05
3.5210067e-05
0.001170922
0.0012524359
0.00086529076
0.0013447768
0.0016875001
0.0011276046
0.0010454988
0.0008017733
0.00090806939
0.00035490553
0.00033504041
0.00026844425
0.00046670248
0.0006115658
0.00044346859
0.00035771068
0.00027604204
0.00034787194
0.00012438511
0.00011062757
9.842447e-05
0.00016860294
0.00021477451
0.0001727247
0.00013357695
0.00010679802
0.00013859601
5.1779727e-05
4.4691119e-05
4.2560274e-05
7.0094202e-05
8.6151389e-05
7.484659e-05
5.74978e-05
4.753215e-05
6.1838644e-05
2.4751873e-05
2.1010667e-05
2.0946635e-05
3.3191019e-05
3.9582627e-05
3.629679e-05
2.8013068e-05
2.378796e-05
3.0766609e-05
1.3150886e-05
1.1051599e-05
1.1380254e-05
1.7446213e-05
2.0316688e-05
1.9359504e-05
1.505787e-05
1.3059062e-05
1.6755176e-05
7.5792989e-06
6.3282892e-06
6.6738153e-06
9.9540737e-06
1.1377012e-05
1.1150938e-05
8.7443452e-06
7.7110415e-06
9.8138092e-06
4.6560828e-06
3.8704911e-06
4.1568727e-06
6.0605586e-06
6.8244673e-06
6.8332526e-06
5.3996836e-06
4.825747e-06
6.095971e-06
3.8879303e-06
4.3254884e-06
4.4037353e-06
0.00048047907
0.00060291671
0.00099484584
0.00040435421
0.0004922891
0.00033468917
0.00038604617
0.00079521699
0.00031306728
0.00033294342
0.00028251563
0.00027545759
0.00022283959
0.0002494421
0.00027398196
0.00018072591
0.00019761582
0.00014655291
0.00019714475
0.00023692721
0.00017340964
0.00016328959
0.00013497591
0.00014635005
9.7052748e-05
0.00010038464
0.0001190652
7.9447957e-05
8.1011274e-05
6.535527e-05
9.2359634e-05
0.00011156976
8.6836903e-05
7.6655091e-05
6.3835402e-05
7.3023105e-05
4.4937576e-05
4.4325013e-05
5.4045877e-05
3.7570387e-05
3.6743178e-05
3.1583087e-05
4.4805121e-05
5.3367212e-05
4.4069516e-05
3.7783903e-05
3.2007512e-05
3.7483436e-05
0.00065861622
0.00077641913
0.00055112971
0.00064123246
0.00072308569
0.00053312188
0.00055708011
0.00047627475
0.00047136474
0.00030650723
0.00032962589
0.00025059918
0.00033722586
0.00040239997
0.0003013121
0.00028118555
0.00023386447
0.00025551797
0.0001385596
0.00014003142
0.00011457066
0.00016174624
0.00019439821
0.00015352048
0.00013485861
0.00011276665
0.00012955086
6.6671595e-05
6.4860739e-05
5.6226019e-05
7.970242e-05
9.4621479e-05
7.8862952e-05
6.7410832e-05
5.7256024e-05
6.7234629e-05
3.4737664e-05
3.3004825e-05
2.9867028e-05
4.1836845e-05
4.8838913e-05
4.2549035e-05
3.5989579e-05
3.1087184e-05
3.6796044e-05
1.9484145e-05
1.8232065e-05
1.7035856e-05
2.347253e-05
2.6960401e-05
2.4313916e-05
2.0512805e-05
1.7991349e-05
2.1324442e-05
1.1639708e-05
1.0780509e-05
1.0321629e-05
1.3983901e-05
1.5834995e-05
1.4668594e-05
1.2389034e-05
1.1010065e-05
1.3028306e-05
7.330267e-06
6.7406057e-06
6.5771453e-06
8.7721686e-06
9.8136464e-06
9.2839567e-06
7.8626545e-06
7.0659206e-06
8.3364579e-06
5.7490709e-06
6.3658961e-06
6.1240472e-06
0.00021186269
0.00025632925
0.0004319529
0.00019210167
0.00022927491
0.00017183327
0.00017670099
0.00035943839
0.00016205399
0.00014676105
0.00013325578
0.00015208415
0.00015199408
0.00011603762
0.00013050315
0.00010054838
0.00011681244
0.00013150538
0.00010304519
9.042087e-05
7.48524e-05
8.0899166e-05
8.6838868e-05
6.4466972e-05
6.8875566e-05
5.5527068e-05
6.8910497e-05
7.9038739e-05
5.9988294e-05
5.2187805e-05
4.1318402e-05
4.2866384e-05
4.7865674e-05
3.573171e-05
3.6768286e-05
3.0967023e-05
3.9531761e-05
4.540566e-05
3.4457405e-05
3.0080196e-05
0.00034032922
0.00039979441
0.00030508373
0.00031690206
0.00034021935
0.00029097831
0.00026386127
0.00020741979
0.00023069732
0.00018012148
0.00021059663
0.00023675612
0.00018603432
0.0001634646
0.00011615888
0.00012317182
0.00010021913
0.00012489659
0.00014307483
0.00010885372
9.4803697e-05
6.4769193e-05
6.6302817e-05
5.6200242e-05
7.1955769e-05
8.2568402e-05
6.2774992e-05
5.4845417e-05
3.7249041e-05
3.7200078e-05
3.2647184e-05
4.2093667e-05
4.8001172e-05
3.6991875e-05
3.2581402e-05
2.2341897e-05
2.1929573e-05
1.9795143e-05
2.5452991e-05
2.8763411e-05
2.2577375e-05
2.0074505e-05
1.3985529e-05
1.3559311e-05
1.2519046e-05
1.5983419e-05
1.7891537e-05
1.4311841e-05
1.2844212e-05
9.1076599e-06
8.7513003e-06
8.2282182e-06
1.0413646e-05
1.155271e-05
9.406776e-06
8.5147837e-06
7.0181989e-06
7.722835e-06
)


525
(
0.0022896313
0.00074147775
0.00011138678
2.6304189e-05
8.7839281e-06
3.669393e-06
1.7831439e-06
9.6513145e-07
5.6605628e-07
0.0044039262
0.0024161677
0.00063492064
0.00018716193
6.8787065e-05
3.0151269e-05
1.5055074e-05
8.2857253e-06
4.9131548e-06
0.0014465482
0.001101482
0.00051176286
0.00021303485
9.4154528e-05
4.5754497e-05
2.4302026e-05
1.3912341e-05
8.4708241e-06
0.00056420086
0.00048805772
0.00030918963
0.00016903043
9.0012362e-05
4.9364896e-05
2.8385522e-05
1.7145951e-05
1.0838595e-05
0.0018052101
0.0048169321
0.0012046838
0.0055596634
0.0037170346
0.00017182646
0.002658971
0.00084768148
3.6304808e-05
0.00058556432
0.00021473438
1.1272517e-05
0.00015939189
7.1712472e-05
4.4900841e-06
5.6497615e-05
2.957436e-05
2.1113608e-06
2.4308511e-05
1.4172463e-05
1.1157971e-06
1.200966e-05
7.5753684e-06
6.426982e-07
6.5664022e-06
4.3954988e-06
3.8768452e-06
0.0039317434
0.0017877847
0.0031896147
0.0018953686
0.0015983826
0.00088937219
0.0013660992
0.00071987598
0.00024859132
0.00056586462
0.00027387754
8.6720091e-05
0.00021679241
0.00011203418
3.6548685e-05
9.1237407e-05
5.144281e-05
1.7727813e-05
4.3076292e-05
2.6226416e-05
9.5456759e-06
2.2475975e-05
1.4567063e-05
5.5652664e-06
1.2719169e-05
8.6686626e-06
7.6837591e-06
0.0013786455
0.00067957966
0.0012564373
0.00069949374
0.00064222159
0.00063363694
0.0005917058
0.00041044726
0.00026459499
0.00035320218
0.00021589021
0.00011448045
0.00018208137
0.00010951459
5.4319061e-05
9.2799851e-05
5.7517896e-05
2.825169e-05
4.9380898e-05
3.1936104e-05
1.5894314e-05
2.7817019e-05
1.8764512e-05
9.5403262e-06
1.656492e-05
1.1604926e-05
1.0365865e-05
0.00055032298
0.0005240613
0.00035362019
0.00019774062
0.0001052171
5.7127512e-05
3.2444455e-05
1.9362475e-05
1.2107136e-05
0.0055120647
0.0022896313
0.0055120647
0.0012142761
0.00044745328
0.0019568141
0.00021442824
7.4506966e-05
0.00031765276
5.7176869e-05
1.9469995e-05
7.698116e-05
2.0554303e-05
6.9394602e-06
2.5976155e-05
9.0040267e-06
3.0267813e-06
1.0906375e-05
4.5209413e-06
1.5160146e-06
5.3148723e-06
2.5057527e-06
8.389744e-07
2.8816151e-06
1.4962774e-06
5.00476e-07
1.6919745e-06
0.0033432338
0.0044039262
0.0033432338
0.0015687902
0.0017564287
0.0020536992
0.00047415091
0.00045813977
0.00063891107
0.0001589199
0.00014292574
0.00020535863
6.3541399e-05
5.5164176e-05
7.8695743e-05
2.9440943e-05
2.5075312e-05
3.5265092e-05
1.527395e-05
1.2862662e-05
1.7835509e-05
8.6418474e-06
7.2254391e-06
9.8948697e-06
5.2318467e-06
4.3532746e-06
5.8985532e-06
0.0011193589
0.0014465482
0.0011193589
0.00077417026
0.00093579049
0.00089001014
0.00037451863
0.00041107179
0.00045594432
0.00016828092
0.00017226889
0.00020509987
7.9459202e-05
7.7910394e-05
9.5178562e-05
4.0589887e-05
3.8756167e-05
4.7655223e-05
2.2372164e-05
2.1002534e-05
2.5794051e-05
1.316937e-05
1.2224365e-05
1.4951426e-05
8.1921077e-06
7.5449943e-06
9.1816202e-06
0.00046065019
0.00056420086
0.00046065019
0.00037458517
0.00044555009
0.00040585651
0.0002376652
0.00026794778
0.00027046956
0.00013462739
0.0001443011
0.00015588312
7.4797447e-05
7.7160074e-05
8.6525821e-05
4.2613355e-05
4.2786567e-05
4.8876962e-05
2.5284132e-05
2.4911513e-05
2.869162e-05
1.5662527e-05
1.5226462e-05
1.7585178e-05
1.0103334e-05
9.7273735e-06
1.1233356e-05
0.0044491627
0.0052609384
0.0044491627
0.0018052101
0.0030735472
0.0062914333
0.0062914333
0.0055596634
0.0052609384
0.0038358895
0.0048169321
0.00075842978
0.00027354622
0.00048413539
0.0016792412
0.0025807132
0.0018293202
0.0010891594
0.00071575371
0.0012428843
0.00014873708
5.1320783e-05
0.00010579277
0.00032971942
0.00048017711
0.00041143528
0.00023175675
0.00016656501
0.00029449178
4.3257072e-05
1.4688939e-05
3.3272245e-05
9.1374934e-05
0.00012220858
0.000120307
6.9505215e-05
5.3700788e-05
9.2224161e-05
1.6463094e-05
5.5507335e-06
1.3332552e-05
3.3401668e-05
4.2080996e-05
4.5048183e-05
2.6824031e-05
2.1772351e-05
3.6316465e-05
7.4963297e-06
2.5180908e-06
6.2895735e-06
1.4757084e-05
1.784493e-05
2.0151828e-05
1.2304044e-05
1.0336586e-05
1.6838215e-05
3.8691896e-06
1.2968802e-06
3.3302672e-06
7.4457637e-06
8.7445838e-06
1.024099e-05
6.3780271e-06
5.4940183e-06
8.7839492e-06
2.1890077e-06
7.3270886e-07
1.9206018e-06
4.1393892e-06
4.7572501e-06
5.719e-06
3.6182321e-06
3.1762446e-06
5.0032576e-06
2.4767591e-06
2.7994782e-06
3.4321417e-06
0.0030557488
0.0023370348
0.0030557488
0.0039317434
0.0025817982
0.0025115331
0.0025115331
0.0018953686
0.0023370348
0.0020384799
0.0017877847
0.0011709227
0.0012524366
0.00086529068
0.001344776
0.0016875
0.0011276039
0.0010454994
0.00080177324
0.00090806993
0.0003549055
0.00033504038
0.00026844409
0.00046670276
0.00061156543
0.00044346886
0.00035771065
0.00027604187
0.00034787192
0.00012438503
0.0001106275
9.8424529e-05
0.00016860293
0.00021477464
0.00017272469
0.00013357687
0.00010679808
0.00013859592
5.1779758e-05
4.4691146e-05
4.2560271e-05
7.009416e-05
8.6151383e-05
7.4846545e-05
5.7497834e-05
4.7532147e-05
6.1838681e-05
2.4751872e-05
2.1010666e-05
2.0946623e-05
3.3191039e-05
3.9582603e-05
3.6296811e-05
2.8013066e-05
2.3787946e-05
3.0766607e-05
1.3150879e-05
1.1051592e-05
1.1380261e-05
1.7446212e-05
2.03167e-05
1.9359503e-05
1.5057861e-05
1.305907e-05
1.6755166e-05
7.579302e-06
6.3282918e-06
6.673814e-06
9.9540713e-06
1.137701e-05
1.1150935e-05
8.7443488e-06
7.71104e-06
9.8138132e-06
6.0605589e-06
6.8244668e-06
6.833253e-06
0.0010753759
0.00084947217
0.0010753759
0.0013786455
0.00099484644
0.00087870656
0.00087870656
0.00069949374
0.00084947217
0.00079521746
0.00067957966
0.00065861662
0.0007764196
0.00055112968
0.00064123208
0.00072308567
0.00053312156
0.00055708044
0.00047627472
0.00047136502
0.00030650721
0.00032962587
0.00025059903
0.00033722606
0.00040239973
0.00030131229
0.00028118553
0.00023386433
0.00025551795
0.00013855951
0.00014003133
0.00011457073
0.00016174623
0.00019439833
0.00015352047
0.00013485853
0.00011276672
0.00012955078
6.6671635e-05
6.4860778e-05
5.6226016e-05
7.9702373e-05
9.4621474e-05
7.8862904e-05
6.7410873e-05
5.7256021e-05
6.7234669e-05
3.4737663e-05
3.3004823e-05
2.986701e-05
4.183687e-05
4.8838883e-05
4.2549061e-05
3.5989578e-05
3.1087166e-05
3.6796043e-05
1.9484134e-05
1.8232054e-05
1.7035866e-05
2.3472529e-05
2.6960417e-05
2.4313915e-05
2.0512793e-05
1.799136e-05
2.1324429e-05
1.1639713e-05
1.0780513e-05
1.0321627e-05
1.3983898e-05
1.5834992e-05
1.4668591e-05
1.2389039e-05
1.1010063e-05
1.3028312e-05
8.772169e-06
9.8136457e-06
9.2839572e-06
0.00045077444
0.00037317041
0.00045077444
0.00055032298
0.00043195316
0.00038033365
0.00038033365
0.00037317041
0.00035943861
0.00034032942
0.00039979465
0.00030508372
0.00031690187
0.00034021934
0.00029097848
0.00026386126
0.00020741978
0.00023069731
0.00018012137
0.00021059675
0.00023675598
0.00018603432
0.0001634645
0.00011615881
0.00012317174
0.00010021919
0.00012489658
0.00014307491
0.00010885366
9.4803754e-05
6.4769231e-05
6.6302856e-05
5.6200239e-05
7.1955726e-05
8.2568399e-05
6.2775029e-05
5.4845415e-05
3.7249039e-05
3.7200077e-05
3.2647165e-05
4.2093693e-05
4.8001144e-05
3.6991874e-05
3.2581383e-05
2.2341883e-05
2.192956e-05
1.9795154e-05
2.545299e-05
2.8763428e-05
2.2577361e-05
2.0074517e-05
1.3985534e-05
1.3559316e-05
1.2519044e-05
1.5983415e-05
1.7891534e-05
1.4311847e-05
1.2844209e-05
1.0413646e-05
1.1552709e-05
)


525
(
0.00044745355
0.0022896314
0.00074147731
0.00011138684
2.6304186e-05
8.7839228e-06
3.6693952e-06
1.7831436e-06
9.6513138e-07
0.0017564297
0.0044039262
0.0024161662
0.00063492103
0.00018716192
6.8787024e-05
3.0151287e-05
1.5055071e-05
8.2857247e-06
0.00093579105
0.0014465482
0.0011014814
0.00051176316
0.00021303483
9.4154471e-05
4.5754524e-05
2.4302021e-05
1.391234e-05
0.00044555035
0.00056420086
0.00048805743
0.00030918982
0.00016903042
9.0012308e-05
4.9364926e-05
2.8385516e-05
1.7145949e-05
0.00027354605
0.0012428835
0.0018052112
0.0018293213
0.004816935
0.0012046837
0.0055596635
0.0037170343
0.00017182636
0.0026589694
0.00084768098
3.630483e-05
0.00058556468
0.0002147345
1.1272516e-05
0.00015939188
7.1712466e-05
4.4900814e-06
5.6497581e-05
2.9574342e-05
2.1113621e-06
2.4308525e-05
1.4172471e-05
1.1157969e-06
1.2009657e-05
7.5753668e-06
6.5664017e-06
0.0012524359
0.00090806939
0.0039317458
0.0011276046
0.0017877858
0.0031896144
0.0018953687
0.0015983825
0.00088937165
0.0013660984
0.00071987555
0.00024859147
0.00056586496
0.00027387771
8.6720085e-05
0.0002167924
0.00011203417
3.6548664e-05
9.1237353e-05
5.1442779e-05
1.7727823e-05