// -*- C++ -*-
// File generated by PyFoam - sorry for the ugliness

FoamFile
{
 version 2.0;
 format ascii;
 class dictionary;
 object changeDictionaryDict;
}

T
{
  internalField uniform 283.15;
  boundaryField
  {
    carrier
    {
      type zeroGradient;
    }
  }
}

p
{
  internalField uniform 100000;
  boundaryField
  {
  }
} 	// ************************************************************************* //

