/*--------------------------------*- C++ -*----------------------------------*\
| =========                 |                                                 |
| \\      /  F ield         | OpenFOAM: The Open Source CFD Toolbox           |
|  \\    /   O peration     | Version:  v2006                                 |
|   \\  /    A nd           | Website:  www.openfoam.com                      |
|    \\/     M anipulation  |                                                 |
\*---------------------------------------------------------------------------*/
FoamFile
{
    version     2.0;
    format      ascii;
    class       extendedFeatureEdgeMesh;
    location    "constant/extendedFeatureEdgeMesh";
    object      Container.extendedFeatureEdgeMesh;
}
// * * * * * * * * * * * * * * * * * * * * * * * * * * * * * * * * * * * * * //

// points

16
(
(0 0 0)
(5.902 0 0)
(0 0 2.3929999)
(5.902 0 2.3929999)
(5.902 2.3559999 0)
(5.902 2.3559999 2.3929999)
(0 2.3559999 0)
(0 2.3559999 2.3929999)
(5.9000001 2.3540001 0.0020000001)
(5.9000001 0.0020000001 0.0020000001)
(5.9000001 2.3540001 2.391)
(5.9000001 0.0020000001 2.391)
(0.0020000001 0.0020000001 0.0020000001)
(0.0020000001 0.0020000001 2.391)
(0.0020000001 2.3540001 0.0020000001)
(0.0020000001 2.3540001 2.391)
)

// edges

24
(
(2 0)
(0 1)
(1 3)
(3 2)
(1 4)
(4 5)
(5 3)
(7 6)
(6 0)
(2 7)
(4 6)
(7 5)
(10 8)
(8 9)
(9 11)
(11 10)
(9 12)
(12 13)
(13 11)
(15 14)
(14 8)
(10 15)
(12 14)
(15 13)
)

// concaveStart mixedStart nonFeatureStart
8 16 16
// internalStart flatStart openStart multipleStart
12 24 24 24
// normals

24
(
(0 -1 0)
(-1 -0 0)
(0 0 -1)
(0 -1 0)
(1 0 0)
(0 0 1)
(1 -0 0)
(0 1 -0)
(-0 0 1)
(-1 0 0)
(0 1 0)
(-0 0 -1)
(-1 0 0)
(0 -1 0)
(-0 0 1)
(-1 -0 0)
(0 1 -0)
(0 0 -1)
(0 0 1)
(0 1 0)
(1 0 0)
(0 -1 0)
(1 -0 0)
(0 0 -1)
)

// normal volume types

24
(
0
0
0
0
0
0
0
0
0
0
0
0
0
0
0
0
0
0
0
0
0
0
0
0
)

// normalDirections

24
(
2(1 -1)
2(1 -1)
2(1 -1)
2(1 -1)
2(1 -1)
2(1 -1)
2(1 -1)
2(1 -1)
2(1 -1)
2(1 -1)
2(1 -1)
2(1 -1)
2(1 -1)
2(1 -1)
2(1 -1)
2(1 -1)
2(1 -1)
2(1 -1)
2(1 -1)
2(1 -1)
2(1 -1)
2(1 -1)
2(1 -1)
2(1 -1)
)

// edgeNormals

24
(
2(0 1)
2(0 2)
2(3 4)
2(3 5)
2(4 2)
2(6 7)
2(6 8)
2(9 10)
2(9 11)
2(1 5)
2(7 11)
2(10 8)
2(12 13)
2(12 14)
2(15 16)
2(15 17)
2(16 18)
2(19 20)
2(19 17)
2(21 22)
2(21 14)
2(13 23)
2(20 18)
2(22 23)
)

// featurePointNormals

16
(
3(0 1 2)
3(0 2 4)
3(0 1 5)
3(3 4 5)
3(4 2 7)
3(6 7 8)
3(9 10 11)
3(9 10 5)
3(12 13 14)
3(12 14 16)
3(12 13 17)
3(15 16 17)
3(16 18 20)
3(19 20 17)
3(21 22 14)
3(21 22 23)
)

// featurePointEdges

16
(
3(0 8 1)
3(2 4 1)
3(3 9 0)
3(2 6 3)
3(5 10 4)
3(5 11 6)
3(7 10 8)
3(9 11 7)
3(12 20 13)
3(14 16 13)
3(15 21 12)
3(14 18 15)
3(17 22 16)
3(17 23 18)
3(19 22 20)
3(21 23 19)
)

// regionEdges
0()


// ************************************************************************* //
