// -*- C++ -*-
// File generated by PyFoam - sorry for the ugliness

FoamFile
{
 version 2.0;
 format ascii;
 class volScalarField;
 object T;
}

dimensions [ 0 0 0 1 0 0 0 ];

internalField uniform 300;

boundaryField
{
  ".*"
  {
    Tnbr T;
    alphaAni Anialpha;
    kappaLayers ( 0.05 );
    kappaMethod directionalSolidThermo;
    thicknessLayers ( 0.01 );
    type compressible::turbulentTemperatureCoupledBaffleMixed;
    value $internalField;
  }
  ".*"
  {
    Tnbr T;
    alphaAni Anialpha;
    kappaLayers ( 0.05 );
    kappaMethod directionalSolidThermo;
    thicknessLayers ( 0.01 );
    type compressible::turbulentTemperatureCoupledBaffleMixed;
    value $internalField;
  }
} 	// ************************************************************************* //

