// -*- C++ -*-
// File generated by PyFoam - sorry for the ugliness

FoamFile
{
 version 2.0;
 format ascii;
 class dictionary;
 object changeDictionaryDict;
}

boundary
{
}

T
{
  boundaryField
  {
    bottom
    {
      Ta 290.69125947;
    }
    carrier
    {
      Ta 290.69125947;
      h 1.2520764677231195;
    }
  }
}

