// -*- C++ -*-
// File generated by PyFoam - sorry for the ugliness

FoamFile
{
 version 2.0;
 format ascii;
 class dictionary;
 object changeDictionaryDict;
}

boundary
{
}

U
{
  internalField uniform (0 0 0);
  boundaryField
  {
  }
}

T
{
  internalField uniform 285;
  boundaryField
  {
    container_left
    {
      type externalWallHeatFluxTemperature;
      mode coefficient;
      Ta
        (
          281
        );
      h
        (
          10
        );
      kappaMethod fluidThermo;
      qr qr;
      value $internalField;
    }
    container_right
    {
      type externalWallHeatFluxTemperature;
      mode coefficient;
      Ta
        (
          281
        );
      h
        (
          10
        );
      kappaMethod fluidThermo;
      qr qr;
      value $internalField;
    }
    container_front
    {
      type externalWallHeatFluxTemperature;
      mode coefficient;
      Ta
        (
          281
        );
      h
        (
          10
        );
      kappaMethod fluidThermo;
      qr qr;
      value $internalField;
    }
    container_back
    {
      type externalWallHeatFluxTemperature;
      mode coefficient;
      Ta
        (
          281
        );
      h
        (
          10
        );
      kappaMethod fluidThermo;
      qr qr;
      value $internalField;
    }
    container_top
    {
      type externalWallHeatFluxTemperature;
      mode coefficient;
      Ta
        (
          281
        );
      h
        (
          10
        );
      kappaMethod fluidThermo;
      qr qr;
      value $internalField;
    }
    container_bottom
    {
      type zeroGradient;
    } 	// type            externalWallHeatFluxTemperature;// mode            coefficient;// Ta              uniform 300.0;// h               uniform 10e5;// kappaMethod     fluidThermo;// kappa           none;// thicknessLayers (1 2);// kappaLayers     (100 200);// value           uniform 300.0;
  }
}

p_rgh
{
  internalField uniform 100000.0;
  boundaryField
  {
  }
}

p
{
  internalField uniform 100000.0;
  boundaryField
  {
  }
} 	// ************************************************************************* //

