// -*- C++ -*-
// File generated by PyFoam - sorry for the ugliness

FoamFile
{
 version 2.0;
 format ascii;
 class dictionary;
 location "constant";
 object boundaryRadiationProperties;
}

"airInside_to_.*"
{
  type opaqueReflective;
  fd 0.0; 	// Fraction of the reflected is diffussive// 0: all specular 1: all diffusive
  wallAbsorptionEmissionModel
  {
    type multiBandAbsorption;
    absorptivity
      (
        0
        0
      );
    emissivity
      (
        0
        0
      );
  }
}

"carrier_.*"
{
  type opaqueDiffusive;
  wallAbsorptionEmissionModel
  {
    type multiBandAbsorption;
    absorptivity
      (
        0.15
        0.15
      );
    emissivity
      (
        0.15
        0.15
      );
  }
}

carrier
{
  type opaqueDiffusive;
  wallAbsorptionEmissionModel
  {
    type multiBandAbsorption;
    absorptivity ( 0.65 0.65 );
    emissivity ( 0.65 0.65 );
  }
}

bottom
{
  type opaqueDiffusive;
  wallAbsorptionEmissionModel
  {
    type multiBandAbsorption;
    absorptivity
      (
        0.15
        0.15
      );
    emissivity
      (
        0.15
        0.15
      );
  }
} 	// ************************************************************************* //

