// -*- C++ -*-
// File generated by PyFoam - sorry for the ugliness

FoamFile
{
 version 2.0;
 format ascii;
 class dictionary;
 location "system";
 object controlDict;
}

application chtMultiRegionFoam;

startFrom latestTime;

startTime 0.001;

stopAt endTime;

endTime 10800;

deltaT 0.05;

writeControl adjustable;

writeInterval 3600;

purgeWrite 0;

writeFormat ascii;

writePrecision 8;

writeCompression no;
timeFormat general;

timePrecision 6;

runTimeModifiable yes;
maxCo 32; 	// Maximum diffusion number

maxDi 10.0;

adjustTimeStep yes;
functions
{
  temperature_right
  {
    type surfaceFieldValue;
    libs
      (
        "fieldFunctionObjects"
      );
    enabled yes;
    region airInside;
    fields
      (
        T
      );
    operation areaAverage;
    regionType patch;
    name container;
    writeFields no;
    executeControl writeTime;
    executeInterval 1;
    writeControl writeTime;
    writeInterval 1;
  }
  average_airInside
  {
    type volFieldValue;
    libs
      (
        "fieldFunctionObjects"
      ); 	// enabled         false;
    region airInside;
    fields
      (
        T
      );
    operation volAverage;
    regionType all;
    writeFields no;
    executeControl writeTime;
    executeInterval 1;
    writeControl writeTime;
    writeInterval 1;
  }
  min_airInside
  {
    type volFieldValue;
    libs
      (
        "fieldFunctionObjects"
      ); 	// enabled         false;
    region airInside;
    fields
      (
        T
      );
    operation min;
    regionType all;
    writeFields no;
    executeControl writeTime;
    executeInterval 1;
    writeControl writeTime;
    writeInterval 1;
  }
  max_airInside
  {
    type volFieldValue;
    libs
      (
        "fieldFunctionObjects"
      ); 	// enabled         false;
    region airInside;
    fields
      (
        T
      );
    operation max;
    regionType all;
    writeFields no;
    executeControl writeTime;
    executeInterval 1;
    writeControl writeTime;
    writeInterval 1;
  }
  average_battery0_0
  {
    type volFieldValue;
    libs
      (
        "fieldFunctionObjects"
      );
    region battery0_0;
    fields
      (
        T
      );
    operation volAverage;
    regionType all;
    writeFields no;
    executeControl writeTime;
    executeInterval 1;
    writeControl writeTime;
    writeInterval 1;
  }
  min_battery0_0
  {
    type volFieldValue;
    libs
      (
        "fieldFunctionObjects"
      );
    region battery0_0;
    fields
      (
        T
      );
    operation min;
    regionType all;
    writeFields no;
    executeControl writeTime;
    executeInterval 1;
    writeControl writeTime;
    writeInterval 1;
  }
  max_battery0_0
  {
    type volFieldValue;
    libs
      (
        "fieldFunctionObjects"
      );
    region battery0_0;
    fields
      (
        T
      );
    operation max;
    regionType all;
    writeFields no;
    executeControl writeTime;
    executeInterval 1;
    writeControl writeTime;
    writeInterval 1;
  } 	// //finds minimal and maximal Values in batteries region// minMaxValues// {//     type        fieldMinMax;//     libs        ("libfieldFunctionObjects.so");//     region      airOutside;//     write       false;//     fields      (T);// }//     //controls simulation during runtime//     runTimeControl//     {//         type        runTimeControl;//         libs        ("libutilityFunctionObjects.so");//         region      batteries;//         conditions//         {//             // if minimal temperature exceeds value, simulation stops//             minTempExceeded//             {//                 type            minMax;//                 functionObject  minMaxValues;//                 fields          (min(T));//                 mode            maximum;//                 value           272;//             }//         }//     }
  average_battery0_1
  {
    type volFieldValue;
    libs
      (
        "fieldFunctionObjects"
      );
    region battery0_1;
    fields
      (
        T
      );
    operation volAverage;
    regionType all;
    writeFields no;
    executeControl writeTime;
    executeInterval 1;
    writeControl writeTime;
    writeInterval 1;
  }
  min_battery0_1
  {
    type volFieldValue;
    libs
      (
        "fieldFunctionObjects"
      );
    region battery0_1;
    fields
      (
        T
      );
    operation min;
    regionType all;
    writeFields no;
    executeControl writeTime;
    executeInterval 1;
    writeControl writeTime;
    writeInterval 1;
  }
  max_battery0_1
  {
    type volFieldValue;
    libs
      (
        "fieldFunctionObjects"
      );
    region battery0_1;
    fields
      (
        T
      );
    operation max;
    regionType all;
    writeFields no;
    executeControl writeTime;
    executeInterval 1;
    writeControl writeTime;
    writeInterval 1;
  }
  average_battery0_2
  {
    type volFieldValue;
    libs
      (
        "fieldFunctionObjects"
      );
    region battery0_2;
    fields
      (
        T
      );
    operation volAverage;
    regionType all;
    writeFields no;
    executeControl writeTime;
    executeInterval 1;
    writeControl writeTime;
    writeInterval 1;
  }
  min_battery0_2
  {
    type volFieldValue;
    libs
      (
        "fieldFunctionObjects"
      );
    region battery0_2;
    fields
      (
        T
      );
    operation min;
    regionType all;
    writeFields no;
    executeControl writeTime;
    executeInterval 1;
    writeControl writeTime;
    writeInterval 1;
  }
  max_battery0_2
  {
    type volFieldValue;
    libs
      (
        "fieldFunctionObjects"
      );
    region battery0_2;
    fields
      (
        T
      );
    operation max;
    regionType all;
    writeFields no;
    executeControl writeTime;
    executeInterval 1;
    writeControl writeTime;
    writeInterval 1;
  }
  average_battery0_3
  {
    type volFieldValue;
    libs
      (
        "fieldFunctionObjects"
      );
    region battery0_3;
    fields
      (
        T
      );
    operation volAverage;
    regionType all;
    writeFields no;
    executeControl writeTime;
    executeInterval 1;
    writeControl writeTime;
    writeInterval 1;
  }
  min_battery0_3
  {
    type volFieldValue;
    libs
      (
        "fieldFunctionObjects"
      );
    region battery0_3;
    fields
      (
        T
      );
    operation min;
    regionType all;
    writeFields no;
    executeControl writeTime;
    executeInterval 1;
    writeControl writeTime;
    writeInterval 1;
  }
  max_battery0_3
  {
    type volFieldValue;
    libs
      (
        "fieldFunctionObjects"
      );
    region battery0_3;
    fields
      (
        T
      );
    operation max;
    regionType all;
    writeFields no;
    executeControl writeTime;
    executeInterval 1;
    writeControl writeTime;
    writeInterval 1;
  }
  average_battery0_4
  {
    type volFieldValue;
    libs
      (
        "fieldFunctionObjects"
      );
    region battery0_4;
    fields
      (
        T
      );
    operation volAverage;
    regionType all;
    writeFields no;
    executeControl writeTime;
    executeInterval 1;
    writeControl writeTime;
    writeInterval 1;
  }
  min_battery0_4
  {
    type volFieldValue;
    libs
      (
        "fieldFunctionObjects"
      );
    region battery0_4;
    fields
      (
        T
      );
    operation min;
    regionType all;
    writeFields no;
    executeControl writeTime;
    executeInterval 1;
    writeControl writeTime;
    writeInterval 1;
  }
  max_battery0_4
  {
    type volFieldValue;
    libs
      (
        "fieldFunctionObjects"
      );
    region battery0_4;
    fields
      (
        T
      );
    operation max;
    regionType all;
    writeFields no;
    executeControl writeTime;
    executeInterval 1;
    writeControl writeTime;
    writeInterval 1;
  }
  average_battery0_5
  {
    type volFieldValue;
    libs
      (
        "fieldFunctionObjects"
      );
    region battery0_5;
    fields
      (
        T
      );
    operation volAverage;
    regionType all;
    writeFields no;
    executeControl writeTime;
    executeInterval 1;
    writeControl writeTime;
    writeInterval 1;
  }
  min_battery0_5
  {
    type volFieldValue;
    libs
      (
        "fieldFunctionObjects"
      );
    region battery0_5;
    fields
      (
        T
      );
    operation min;
    regionType all;
    writeFields no;
    executeControl writeTime;
    executeInterval 1;
    writeControl writeTime;
    writeInterval 1;
  }
  max_battery0_5
  {
    type volFieldValue;
    libs
      (
        "fieldFunctionObjects"
      );
    region battery0_5;
    fields
      (
        T
      );
    operation max;
    regionType all;
    writeFields no;
    executeControl writeTime;
    executeInterval 1;
    writeControl writeTime;
    writeInterval 1;
  }
  average_battery0_6
  {
    type volFieldValue;
    libs
      (
        "fieldFunctionObjects"
      );
    region battery0_6;
    fields
      (
        T
      );
    operation volAverage;
    regionType all;
    writeFields no;
    executeControl writeTime;
    executeInterval 1;
    writeControl writeTime;
    writeInterval 1;
  }
  min_battery0_6
  {
    type volFieldValue;
    libs
      (
        "fieldFunctionObjects"
      );
    region battery0_6;
    fields
      (
        T
      );
    operation min;
    regionType all;
    writeFields no;
    executeControl writeTime;
    executeInterval 1;
    writeControl writeTime;
    writeInterval 1;
  }
  max_battery0_6
  {
    type volFieldValue;
    libs
      (
        "fieldFunctionObjects"
      );
    region battery0_6;
    fields
      (
        T
      );
    operation max;
    regionType all;
    writeFields no;
    executeControl writeTime;
    executeInterval 1;
    writeControl writeTime;
    writeInterval 1;
  }
  average_battery0_7
  {
    type volFieldValue;
    libs
      (
        "fieldFunctionObjects"
      );
    region battery0_7;
    fields
      (
        T
      );
    operation volAverage;
    regionType all;
    writeFields no;
    executeControl writeTime;
    executeInterval 1;
    writeControl writeTime;
    writeInterval 1;
  }
  min_battery0_7
  {
    type volFieldValue;
    libs
      (
        "fieldFunctionObjects"
      );
    region battery0_7;
    fields
      (
        T
      );
    operation min;
    regionType all;
    writeFields no;
    executeControl writeTime;
    executeInterval 1;
    writeControl writeTime;
    writeInterval 1;
  }
  max_battery0_7
  {
    type volFieldValue;
    libs
      (
        "fieldFunctionObjects"
      );
    region battery0_7;
    fields
      (
        T
      );
    operation max;
    regionType all;
    writeFields no;
    executeControl writeTime;
    executeInterval 1;
    writeControl writeTime;
    writeInterval 1;
  }
} 	// ************************************************************************* //

