/*--------------------------------*- C++ -*----------------------------------*\
| =========                 |                                                 |
| \\      /  F ield         | OpenFOAM: The Open Source CFD Toolbox           |
|  \\    /   O peration     | Version:  v1806                                 |
|   \\  /    A nd           | Web:      www.OpenFOAM.com                      |
|    \\/     M anipulation  |                                                 |
\*---------------------------------------------------------------------------*/
FoamFile
{
    version     2.0;
    format      ascii;
    class       dictionary;
    object      topoSetDict;
}
// * * * * * * * * * * * * * * * * * * * * * * * * * * * * * * * * * * * * * //

actions
(
    {
        name    inlet;
        type    faceZoneSet;
        action  new;
        source  searchableSurfaceToFaceZone;
        sourceInfo
        {
            surface searchableBox;
            min (-2.12 -6.40 0);
            max (-2.115 6.40 10.24);
        }
    }
);

// ************************************************************************* //
