// -*- C++ -*-
// File generated by PyFoam - sorry for the ugliness

FoamFile
{
 version 2.0;
 format ascii;
 class dictionary;
 location "constant";
 object regionProperties;
}

regions
  (
    fluid

    (
      airInside
    )
    solid

    48
    (
      battery0_0
      battery0_1
      battery0_2
      battery0_3
      battery0_4
      battery0_5
      battery0_6
      battery0_7
      battery1_0
      battery1_1
      battery1_2
      battery1_3
      battery1_4
      battery1_5
      battery1_6
      battery1_7
      battery2_0
      battery2_1
      battery2_2
      battery2_3
      battery2_4
      battery2_5
      battery2_6
      battery2_7
      battery3_0
      battery3_1
      battery3_2
      battery3_3
      battery3_4
      battery3_5
      battery3_6
      battery3_7
      battery4_0
      battery4_1
      battery4_2
      battery4_3
      battery4_4
      battery4_5
      battery4_6
      battery4_7
      battery5_0
      battery5_1
      battery5_2
      battery5_3
      battery5_4
      battery5_5
      battery5_6
      battery5_7
    )
  );



// ************************************************************************* //