// -*- C++ -*-
// File generated by PyFoam - sorry for the ugliness

FoamFile
{
 version 2.0;
 format ascii;
 class dictionary;
 object changeDictionaryDict;
}

boundary
{
}

U
{
  internalField uniform (0 0 0);
  boundaryField
  {
    "container_.*"
    {
      type noSlip;
    }
    container
    {
      type noSlip;
    }
    bottom
    {
      type noSlip;
    }
  }
}

T
{
  internalField uniform 293.15;
  boundaryField
  {
    container
    {
      type externalWallHeatFluxTemperature;
      mode coefficient;
      Ta
        (
          287
        );
      h
        (
          1.349308352399121
        );
      kappaMethod fluidThermo;
      thicknessLayers
        (
          0.02
        );
      kappaLayers
        (
          44
        );
      qr qr;
      value $internalField;
    }
    container_left
    {
      type externalWallHeatFluxTemperature;
      mode coefficient;
      Ta 285;
      h 10;
      kappaMethod fluidThermo;
      qr qr;
      value $internalField;
    }
    container_right
    {
      type externalWallHeatFluxTemperature;
      mode coefficient;
      Ta 285;
      h 10;
      kappaMethod fluidThermo;
      qr qr;
      value $internalField;
    }
    container_front
    {
      type externalWallHeatFluxTemperature;
      mode coefficient;
      Ta 285;
      h 10;
      kappaMethod fluidThermo;
      qr qr;
      value $internalField;
    }
    container_back
    {
      type externalWallHeatFluxTemperature;
      mode coefficient;
      Ta 285;
      h 10;
      kappaMethod fluidThermo;
      qr qr;
      value $internalField;
    }
    container_top
    {
      type externalWallHeatFluxTemperature;
      mode coefficient;
      Ta 285;
      h 10;
      kappaMethod fluidThermo;
      qr qr;
      value $internalField;
    }
    container_bottom
    {
      type zeroGradient;
    }
    bottom
    {
      type externalWallHeatFluxTemperature;
      mode coefficient; 	// type               zeroGradient;
      Ta uniform 293.15;
      h uniform 1000000.0;
      kappaMethod fluidThermo;
      kappa none;
      thicknessLayers
        (
          1
          2
        );
      kappaLayers
        (
          100
          200
        );
      value uniform 293.15;
    }
  }
}

p_rgh
{
  internalField uniform 100000.0;
  boundaryField
  {
    "container_.*"
    {
      type fixedFluxPressure;
      value $internalField;
    }
    container
    {
      type fixedFluxPressure;
      value $internalField;
    }
    bottom
    {
      type fixedFluxPressure;
      value $internalField;
    }
  }
}

p
{
  internalField uniform 100000.0;
  boundaryField
  {
    ".*"
    {
      type calculated;
      value $internalField;
    }
  }
} 	// ************************************************************************* //

